
  xtb     03162223243D
 xtb: 6.3.3 (4ae9cef)
 60 64  0     0  0            999 V2000
   -2.6935    1.0948   -1.4964 O   0  0  0  0  0  0  0  0  0  0  0  0
   -2.0907    0.1973   -0.9527 C   0  0  0  0  0  0  0  0  0  0  0  0
   -2.2412   -1.2348   -1.3482 C   0  0  0  0  0  0  0  0  0  0  0  0
   -2.5305   -2.2482   -0.4385 C   0  0  0  0  0  0  0  0  0  0  0  0
   -2.6512   -3.5551   -0.8810 C   0  0  0  0  0  0  0  0  0  0  0  0
   -2.4801   -3.8672   -2.2187 C   0  0  0  0  0  0  0  0  0  0  0  0
   -2.2101   -2.8476   -3.1167 C   0  0  0  0  0  0  0  0  0  0  0  0
   -1.9772   -3.2588   -4.9590 Br  0  0  0  0  0  0  0  0  0  0  0  0
   -2.0997   -1.5337   -2.6993 C   0  0  0  0  0  0  0  0  0  0  0  0
   -1.2057    0.4459    0.0645 N   0  0  0  0  0  0  0  0  0  0  0  0
   -0.2045   -0.4663    0.5464 C   0  0  0  0  0  0  0  0  0  0  0  0
   -0.4085   -0.7330    2.0556 C   0  0  0  0  0  0  0  0  0  0  0  0
    0.4618   -0.0774    2.8096 O   0  0  0  0  0  0  0  0  0  0  0  0
   -1.2564   -1.4647    2.4847 O   0  0  0  0  0  0  0  0  0  0  0  0
    1.0336    0.2220    0.2828 N   0  0  0  0  0  0  0  0  0  0  0  0
    2.2794   -0.3128    0.3327 C   0  0  0  0  0  0  0  0  0  0  0  0
    2.2806   -1.8118    0.4097 C   0  0  0  0  0  0  0  0  0  0  0  0
    1.7707   -2.5557   -0.6484 C   0  0  0  0  0  0  0  0  0  0  0  0
    1.7500   -3.9350   -0.5537 C   0  0  0  0  0  0  0  0  0  0  0  0
    0.9926   -4.9438   -1.9778 Br  0  0  0  0  0  0  0  0  0  0  0  0
    2.2436   -4.5887    0.5633 C   0  0  0  0  0  0  0  0  0  0  0  0
    2.7772   -3.8396    1.5973 C   0  0  0  0  0  0  0  0  0  0  0  0
    2.7965   -2.4564    1.5253 C   0  0  0  0  0  0  0  0  0  0  0  0
    3.2855    0.3579    0.2989 O   0  0  0  0  0  0  0  0  0  0  0  0
    0.8153    1.6616    0.1753 C   0  0  0  0  0  0  0  0  0  0  0  0
    1.3260    2.1784   -1.1455 C   0  0  0  0  0  0  0  0  0  0  0  0
    1.0152    1.5092   -2.3229 C   0  0  0  0  0  0  0  0  0  0  0  0
    1.4624    1.9891   -3.5398 C   0  0  0  0  0  0  0  0  0  0  0  0
    2.2239    3.1442   -3.5914 C   0  0  0  0  0  0  0  0  0  0  0  0
    2.5384    3.8140   -2.4219 C   0  0  0  0  0  0  0  0  0  0  0  0
    2.0920    3.3327   -1.2039 C   0  0  0  0  0  0  0  0  0  0  0  0
   -0.7260    1.8006    0.3009 C   0  0  0  0  0  0  0  0  0  0  0  0
   -1.1790    2.3574    1.6299 C   0  0  0  0  0  0  0  0  0  0  0  0
   -2.1904    1.7483    2.3600 C   0  0  0  0  0  0  0  0  0  0  0  0
   -2.5897    2.2729    3.5777 C   0  0  0  0  0  0  0  0  0  0  0  0
   -1.9922    3.4182    4.0728 C   0  0  0  0  0  0  0  0  0  0  0  0
   -1.0048    4.0488    3.3342 C   0  0  0  0  0  0  0  0  0  0  0  0
   -0.6032    3.5241    2.1194 C   0  0  0  0  0  0  0  0  0  0  0  0
   -2.6636   -2.0185    0.6073 H   0  0  0  0  0  0  0  0  0  0  0  0
   -2.8739   -4.3404   -0.1754 H   0  0  0  0  0  0  0  0  0  0  0  0
   -2.5537   -4.8869   -2.5623 H   0  0  0  0  0  0  0  0  0  0  0  0
   -1.9042   -0.7418   -3.4067 H   0  0  0  0  0  0  0  0  0  0  0  0
   -0.2751   -1.4340    0.0374 H   0  0  0  0  0  0  0  0  0  0  0  0
    0.2991   -0.2346    3.7545 H   0  0  0  0  0  0  0  0  0  0  0  0
    1.4071   -2.0653   -1.5400 H   0  0  0  0  0  0  0  0  0  0  0  0
    2.2151   -5.6660    0.6181 H   0  0  0  0  0  0  0  0  0  0  0  0
    3.1768   -4.3408    2.4654 H   0  0  0  0  0  0  0  0  0  0  0  0
    3.2102   -1.8688    2.3301 H   0  0  0  0  0  0  0  0  0  0  0  0
    1.3334    2.1638    0.9987 H   0  0  0  0  0  0  0  0  0  0  0  0
    0.4211    0.6064   -2.2882 H   0  0  0  0  0  0  0  0  0  0  0  0
    1.2170    1.4608   -4.4491 H   0  0  0  0  0  0  0  0  0  0  0  0
    2.5741    3.5184   -4.5417 H   0  0  0  0  0  0  0  0  0  0  0  0
    3.1370    4.7120   -2.4568 H   0  0  0  0  0  0  0  0  0  0  0  0
    2.3486    3.8510   -0.2917 H   0  0  0  0  0  0  0  0  0  0  0  0
   -1.1269    2.4336   -0.5011 H   0  0  0  0  0  0  0  0  0  0  0  0
   -2.6792    0.8664    1.9741 H   0  0  0  0  0  0  0  0  0  0  0  0
   -3.3743    1.7843    4.1361 H   0  0  0  0  0  0  0  0  0  0  0  0
   -2.3033    3.8259    5.0230 H   0  0  0  0  0  0  0  0  0  0  0  0
   -0.5481    4.9549    3.7033 H   0  0  0  0  0  0  0  0  0  0  0  0
    0.1531    4.0328    1.5400 H   0  0  0  0  0  0  0  0  0  0  0  0
  1  2  2  0  0  0  0
  2  3  1  0  0  0  0
  3  4  4  0  0  0  0
  4  5  4  0  0  0  0
  5  6  4  0  0  0  0
  6  7  4  0  0  0  0
  7  8  1  0  0  0  0
  3  9  4  0  0  0  0
  7  9  4  0  0  0  0
  2 10  1  0  0  0  0
 10 11  1  0  0  0  0
 11 12  1  0  0  0  0
 12 13  1  0  0  0  0
 12 14  2  0  0  0  0
 11 15  1  0  0  0  0
 15 16  4  0  0  0  0
 16 17  1  0  0  0  0
 17 18  4  0  0  0  0
 18 19  4  0  0  0  0
 19 20  1  0  0  0  0
 19 21  4  0  0  0  0
 21 22  4  0  0  0  0
 17 23  4  0  0  0  0
 22 23  4  0  0  0  0
 16 24  2  0  0  0  0
 15 25  1  0  0  0  0
 25 26  1  0  0  0  0
 26 27  4  0  0  0  0
 27 28  4  0  0  0  0
 28 29  4  0  0  0  0
 29 30  4  0  0  0  0
 26 31  4  0  0  0  0
 30 31  4  0  0  0  0
 10 32  1  0  0  0  0
 25 32  1  0  0  0  0
 32 33  1  0  0  0  0
 33 34  4  0  0  0  0
 34 35  4  0  0  0  0
 35 36  4  0  0  0  0
 36 37  4  0  0  0  0
 33 38  4  0  0  0  0
 37 38  4  0  0  0  0
  4 39  1  0  0  0  0
  5 40  1  0  0  0  0
  6 41  1  0  0  0  0
  9 42  1  0  0  0  0
 11 43  1  0  0  0  0
 13 44  1  0  0  0  0
 18 45  1  0  0  0  0
 21 46  1  0  0  0  0
 22 47  1  0  0  0  0
 23 48  1  0  0  0  0
 25 49  1  0  0  0  0
 27 50  1  0  0  0  0
 28 51  1  0  0  0  0
 29 52  1  0  0  0  0
 30 53  1  0  0  0  0
 31 54  1  0  0  0  0
 32 55  1  0  0  0  0
 34 56  1  0  0  0  0
 35 57  1  0  0  0  0
 36 58  1  0  0  0  0
 37 59  1  0  0  0  0
 38 60  1  0  0  0  0
M  END
