66

C     -4.047654   -2.726498   -2.339078
C     -4.813655   -1.600437   -2.613556
C     -4.463543   -0.392524   -2.039696
C     -3.335004   -0.310166   -1.215623
C     -2.494250   -1.415946   -0.941175
C     -2.916759   -2.655169   -1.507794
C     -2.227126   -3.840373   -1.233630
C     -1.130858   -3.843863   -0.388182
C     -0.686064   -2.647011    0.154862
C     -1.307849   -1.403669   -0.134900
C     -0.569784   -0.198248    0.476081
C      0.856237   -0.040334   -0.164367
C      1.957645   -0.174159    0.896918
C      1.995944    0.776849    1.942469
C      2.928810    0.685550    2.967013
C      3.844910   -0.358368    2.971945
C      3.854834   -1.314134    1.947908
C      2.918371   -1.233938    0.881958
C      3.018327   -2.224222   -0.127625
C      3.970042   -3.247281   -0.075725
C      4.859928   -3.312885    0.984640
C      4.804021   -2.349024    1.986801
N      0.865148    1.284030   -0.770369
C      1.901716    1.678310   -1.597202
C      1.955800    3.061666   -2.040410
C      1.799484    4.201476   -1.277592
O      1.954422    5.317842   -2.035110
C      2.258338    4.903981   -3.291205
C      2.293685    3.531690   -3.344252
O      2.755264    0.881431   -1.980144
C     -0.404786    1.962175   -0.589861
C     -1.244245    2.132738   -1.889901
O     -0.716190    1.529247   -2.978408
O     -2.329452    2.687903   -1.984297
N     -1.154207    1.142799    0.365625
C     -1.863655    1.817039    1.353526
C     -2.438538    1.085981    2.474036
C     -3.061085   -0.145679    2.492184
O     -3.480332   -0.465132    3.744949
C     -3.167716    0.582053    4.546076
C     -2.546391    1.566301    3.817270
O     -1.953083    3.043675    1.328187
H     -4.352290   -3.676420   -2.774850
H     -5.690509   -1.672593   -3.250878
H     -5.069353    0.493874   -2.215157
H     -3.170815    0.655450   -0.760244
H     -2.557118   -4.786362   -1.659476
H     -0.619729   -4.774792   -0.157025
H      0.180308   -2.691363    0.815781
H     -0.478284   -0.425038    1.545912
H      0.997963   -0.744101   -0.986972
H      1.290528    1.604987    1.968156
H      2.944322    1.426322    3.762534
H      4.565598   -0.414358    3.785555
H      2.370536   -2.213989   -0.999454
H      4.017643   -3.982846   -0.874729
H      5.604282   -4.103226    1.027780
H      5.519395   -2.410146    2.804545
H      1.604366    4.385922   -0.229656
H      2.432071    5.689479   -4.014541
H      2.532867    2.927234   -4.209469
H     -0.214231    2.961119   -0.193999
H     -1.390498    1.661145   -3.678272
H     -3.297435   -0.887686    1.744866
H     -3.456074    0.482908    5.583259
H     -2.204241    2.520804    4.193986
