
  xtb     03162223343D
 xtb: 6.3.3 (4ae9cef)
 66 72  0     0  0            999 V2000
   -4.0177   -2.4665   -2.4462 C   0  0  0  0  0  0  0  0  0  0  0  0
   -4.7495   -1.3268   -2.6108 C   0  0  0  0  0  0  0  0  0  0  0  0
   -4.3768   -0.1636   -1.9228 C   0  0  0  0  0  0  0  0  0  0  0  0
   -3.2711   -0.1498   -1.1191 C   0  0  0  0  0  0  0  0  0  0  0  0
   -2.4545   -1.2944   -0.9595 C   0  0  0  0  0  0  0  0  0  0  0  0
   -2.8748   -2.4896   -1.6173 C   0  0  0  0  0  0  0  0  0  0  0  0
   -2.1648   -3.6915   -1.4298 C   0  0  0  0  0  0  0  0  0  0  0  0
   -1.0811   -3.7292   -0.6009 C   0  0  0  0  0  0  0  0  0  0  0  0
   -0.6424   -2.5551    0.0175 C   0  0  0  0  0  0  0  0  0  0  0  0
   -1.2725   -1.3447   -0.1711 C   0  0  0  0  0  0  0  0  0  0  0  0
   -0.5618   -0.1817    0.5026 C   0  0  0  0  0  0  0  0  0  0  0  0
    0.8739   -0.0167   -0.0872 C   0  0  0  0  0  0  0  0  0  0  0  0
    1.9452   -0.1805    0.9634 C   0  0  0  0  0  0  0  0  0  0  0  0
    1.9900    0.7541    1.9698 C   0  0  0  0  0  0  0  0  0  0  0  0
    2.9382    0.6812    2.9958 C   0  0  0  0  0  0  0  0  0  0  0  0
    3.8432   -0.3409    3.0123 C   0  0  0  0  0  0  0  0  0  0  0  0
    3.8373   -1.3209    1.9994 C   0  0  0  0  0  0  0  0  0  0  0  0
    2.8810   -1.2482    0.9467 C   0  0  0  0  0  0  0  0  0  0  0  0
    2.9278   -2.2448   -0.0538 C   0  0  0  0  0  0  0  0  0  0  0  0
    3.8501   -3.2523   -0.0095 C   0  0  0  0  0  0  0  0  0  0  0  0
    4.7819   -3.3257    1.0356 C   0  0  0  0  0  0  0  0  0  0  0  0
    4.7749   -2.3757    2.0154 C   0  0  0  0  0  0  0  0  0  0  0  0
    0.8941    1.3432   -0.6120 N   0  0  0  0  0  0  0  0  0  0  0  0
    1.9399    1.7467   -1.3858 C   0  0  0  0  0  0  0  0  0  0  0  0
    1.8103    3.1035   -1.9639 C   0  0  0  0  0  0  0  0  0  0  0  0
    1.5484    4.2925   -1.3400 C   0  0  0  0  0  0  0  0  0  0  0  0
    1.5915    5.3037   -2.2142 O   0  0  0  0  0  0  0  0  0  0  0  0
    1.8789    4.7820   -3.4164 C   0  0  0  0  0  0  0  0  0  0  0  0
    2.0375    3.4356   -3.3294 C   0  0  0  0  0  0  0  0  0  0  0  0
    2.9097    1.0410   -1.5670 O   0  0  0  0  0  0  0  0  0  0  0  0
   -0.4315    1.9055   -0.6171 C   0  0  0  0  0  0  0  0  0  0  0  0
   -1.0917    1.7595   -2.0038 C   0  0  0  0  0  0  0  0  0  0  0  0
   -0.6842    0.6601   -2.6344 O   0  0  0  0  0  0  0  0  0  0  0  0
   -1.8555    2.5524   -2.4743 O   0  0  0  0  0  0  0  0  0  0  0  0
   -1.1324    1.1465    0.3947 N   0  0  0  0  0  0  0  0  0  0  0  0
   -1.7104    1.8392    1.4332 C   0  0  0  0  0  0  0  0  0  0  0  0
   -2.3080    1.0369    2.5120 C   0  0  0  0  0  0  0  0  0  0  0  0
   -2.9004   -0.1994    2.4889 C   0  0  0  0  0  0  0  0  0  0  0  0
   -3.3920   -0.5068    3.6916 O   0  0  0  0  0  0  0  0  0  0  0  0
   -3.1225    0.5232    4.5143 C   0  0  0  0  0  0  0  0  0  0  0  0
   -2.4681    1.5076    3.8492 C   0  0  0  0  0  0  0  0  0  0  0  0
   -1.7609    3.0522    1.4295 O   0  0  0  0  0  0  0  0  0  0  0  0
   -4.3058   -3.3819   -2.9426 H   0  0  0  0  0  0  0  0  0  0  0  0
   -5.6208   -1.3175   -3.2483 H   0  0  0  0  0  0  0  0  0  0  0  0
   -4.9717    0.7313   -2.0237 H   0  0  0  0  0  0  0  0  0  0  0  0
   -3.0390    0.7542   -0.5847 H   0  0  0  0  0  0  0  0  0  0  0  0
   -2.5042   -4.5803   -1.9414 H   0  0  0  0  0  0  0  0  0  0  0  0
   -0.5463   -4.6504   -0.4264 H   0  0  0  0  0  0  0  0  0  0  0  0
    0.2295   -2.5993    0.6542 H   0  0  0  0  0  0  0  0  0  0  0  0
   -0.4804   -0.4287    1.5687 H   0  0  0  0  0  0  0  0  0  0  0  0
    1.0261   -0.7076   -0.9200 H   0  0  0  0  0  0  0  0  0  0  0  0
    1.2817    1.5713    1.9700 H   0  0  0  0  0  0  0  0  0  0  0  0
    2.9443    1.4373    3.7667 H   0  0  0  0  0  0  0  0  0  0  0  0
    4.5809   -0.4126    3.7985 H   0  0  0  0  0  0  0  0  0  0  0  0
    2.2377   -2.2146   -0.8818 H   0  0  0  0  0  0  0  0  0  0  0  0
    3.8682   -4.0000   -0.7890 H   0  0  0  0  0  0  0  0  0  0  0  0
    5.5032   -4.1294    1.0531 H   0  0  0  0  0  0  0  0  0  0  0  0
    5.4924   -2.4124    2.8228 H   0  0  0  0  0  0  0  0  0  0  0  0
    1.3566    4.5369   -0.3137 H   0  0  0  0  0  0  0  0  0  0  0  0
    1.9460    5.4591   -4.2443 H   0  0  0  0  0  0  0  0  0  0  0  0
    2.2804    2.7499   -4.1139 H   0  0  0  0  0  0  0  0  0  0  0  0
   -0.4677    2.9674   -0.3404 H   0  0  0  0  0  0  0  0  0  0  0  0
   -1.1060    0.5845   -3.5051 H   0  0  0  0  0  0  0  0  0  0  0  0
   -3.0571   -0.9061    1.6982 H   0  0  0  0  0  0  0  0  0  0  0  0
   -3.4476    0.4374    5.5317 H   0  0  0  0  0  0  0  0  0  0  0  0
   -2.1297    2.4497    4.2258 H   0  0  0  0  0  0  0  0  0  0  0  0
  1  2  2  0  0  0  0
  2  3  4  0  0  0  0
  3  4  2  0  0  0  0
  4  5  4  0  0  0  0
  1  6  4  0  0  0  0
  5  6  4  0  0  0  0
  6  7  4  0  0  0  0
  7  8  2  0  0  0  0
  8  9  4  0  0  0  0
  5 10  4  0  0  0  0
  9 10  2  0  0  0  0
 10 11  1  0  0  0  0
 11 12  1  0  0  0  0
 12 13  1  0  0  0  0
 13 14  2  0  0  0  0
 14 15  4  0  0  0  0
 15 16  2  0  0  0  0
 16 17  4  0  0  0  0
 13 18  4  0  0  0  0
 17 18  4  0  0  0  0
 18 19  4  0  0  0  0
 19 20  2  0  0  0  0
 20 21  4  0  0  0  0
 17 22  4  0  0  0  0
 21 22  2  0  0  0  0
 12 23  1  0  0  0  0
 23 24  1  0  0  0  0
 24 25  1  0  0  0  0
 25 26  2  0  0  0  0
 26 27  1  0  0  0  0
 27 28  1  0  0  0  0
 25 29  4  0  0  0  0
 28 29  2  0  0  0  0
 24 30  2  0  0  0  0
 23 31  1  0  0  0  0
 31 32  1  0  0  0  0
 32 33  1  0  0  0  0
 32 34  2  0  0  0  0
 11 35  1  0  0  0  0
 31 35  1  0  0  0  0
 35 36  1  0  0  0  0
 36 37  1  0  0  0  0
 37 38  2  0  0  0  0
 38 39  1  0  0  0  0
 39 40  1  0  0  0  0
 37 41  4  0  0  0  0
 40 41  2  0  0  0  0
 36 42  2  0  0  0  0
  1 43  1  0  0  0  0
  2 44  1  0  0  0  0
  3 45  1  0  0  0  0
  4 46  1  0  0  0  0
  7 47  1  0  0  0  0
  8 48  1  0  0  0  0
  9 49  1  0  0  0  0
 11 50  1  0  0  0  0
 12 51  1  0  0  0  0
 14 52  1  0  0  0  0
 15 53  1  0  0  0  0
 16 54  1  0  0  0  0
 19 55  1  0  0  0  0
 20 56  1  0  0  0  0
 21 57  1  0  0  0  0
 22 58  1  0  0  0  0
 26 59  1  0  0  0  0
 28 60  1  0  0  0  0
 29 61  1  0  0  0  0
 31 62  1  0  0  0  0
 33 63  1  0  0  0  0
 38 64  1  0  0  0  0
 40 65  1  0  0  0  0
 41 66  1  0  0  0  0
M  END
