72

C      1.320950   -2.639778    2.300930
C      2.225629   -2.968592    3.317290
C      3.533272   -2.467270    3.308396
C      4.448894   -2.781474    4.326428
C      5.752839   -2.284548    4.288949
C      6.157223   -1.472259    3.232968
C      5.256586   -1.151301    2.216184
C      3.938868   -1.637965    2.243087
C      3.014928   -1.315378    1.232088
C      1.680541   -1.770557    1.260092
C      0.704397   -1.378101    0.142960
C     -0.805996   -1.321311    0.547723
C     -1.695916   -1.912817   -0.543456
C     -1.893742   -1.270343   -1.778836
C     -2.711348   -1.830304   -2.775810
C     -2.914284   -1.183856   -4.007088
C     -3.731861   -1.751565   -4.986496
C     -4.357821   -2.971217   -4.747398
C     -4.164126   -3.627360   -3.530327
C     -3.344418   -3.069290   -2.535363
C     -3.143258   -3.714506   -1.306490
C     -2.329363   -3.143337   -0.324173
N     -1.085744    0.101540    0.761360
C     -2.253356    0.529933    1.353434
C     -2.521596    1.981444    1.383858
C     -2.567234    2.640059    2.614571
C     -2.817049    4.013787    2.653278
C     -3.038660    4.709712    1.462800
I     -3.408800    6.755293    1.522123
C     -3.016842    4.046167    0.233113
C     -2.763402    2.673820    0.192709
O     -3.083404   -0.221949    1.852930
C      0.072837    0.916083    0.429588
C      0.873438    1.428550    1.667429
O      0.351239    1.078739    2.863324
O      1.917907    2.064934    1.635447
N      0.933450    0.006747   -0.314835
C      1.614122    0.280960   -1.481019
C      1.579718    1.659459   -2.000951
C      0.747504    1.943693   -3.087017
C      0.668341    3.250592   -3.572569
C      1.428640    4.258343   -2.974025
I      1.300571    6.207569   -3.685904
C      2.281983    3.965984   -1.908230
C      2.364293    2.659174   -1.422067
O      2.202329   -0.564259   -2.145345
H      0.334686   -3.094422    2.354356
H      1.897146   -3.632170    4.115706
H      4.152107   -3.420476    5.155682
H      6.452169   -2.534551    5.081930
H      7.173951   -1.088936    3.197993
H      5.590225   -0.514508    1.398748
H      3.354753   -0.691646    0.405696
H      0.877138   -2.084454   -0.678922
H     -1.036046   -1.829041    1.487349
H     -1.410082   -0.316689   -1.970405
H     -2.434935   -0.230921   -4.215313
H     -3.879328   -1.240149   -5.934274
H     -4.996863   -3.414751   -5.506951
H     -4.659554   -4.581247   -3.362291
H     -3.626959   -4.667601   -1.100337
H     -2.207650   -3.667436    0.621879
H     -2.403488    2.086850    3.536427
H     -2.841062    4.523653    3.613368
H     -3.202986    4.582517   -0.695088
H     -2.761880    2.151095   -0.761814
H     -0.232816    1.782679   -0.157804
H      1.025936    1.365464    3.514864
H      0.171865    1.150935   -3.558607
H      0.018086    3.469370   -4.415534
H      2.886826    4.742284   -1.445047
H      3.036482    2.430911   -0.597272
