68

C      1.894135   -2.124607    0.040826
O      1.977899   -1.221968    1.073850
C      2.886396   -1.529335    2.128147
C      2.466044   -3.406219    0.066645
C      2.330135   -4.276388   -1.021690
C      1.609510   -3.882588   -2.141836
C      1.025656   -2.616486   -2.171882
C      1.159491   -1.720215   -1.093449
C      0.468132   -0.367649   -1.206192
C     -0.666104   -0.212242   -0.153946
C     -2.040604   -0.382495   -0.783141
C     -2.534902    0.564607   -1.699995
C     -3.790427    0.420793   -2.286465
C     -4.572536   -0.686700   -1.977553
C     -4.098741   -1.652673   -1.089448
C     -2.838832   -1.509428   -0.487685
O     -2.302778   -2.407987    0.397993
C     -3.135860   -3.471750    0.841364
N     -0.426554    1.100531    0.466813
C     -0.939071    1.548788    1.667036
C     -2.155059    0.915292    2.204878
C     -3.402097    1.281041    1.679523
C     -4.565949    0.719160    2.204575
C     -4.477303   -0.194286    3.257985
C     -3.229819   -0.524687    3.797818
Cl    -3.143817   -1.631268    5.115030
C     -2.061361    0.031638    3.282679
O     -0.448333    2.479773    2.305565
C      0.809997    1.703226   -0.008936
C      0.407388    3.062057   -0.652250
O      1.208880    4.088475   -0.299725
O     -0.502357    3.258123   -1.443197
N      1.357173    0.774871   -0.990568
C      2.464231    0.990833   -1.791079
C      3.421386    2.052176   -1.416104
C      4.026504    2.048780   -0.154338
C      4.911709    3.070846    0.176159
Cl     5.633671    3.093103    1.738153
C      5.212680    4.077486   -0.741400
C      4.631840    4.055983   -2.013456
C      3.744722    3.035017   -2.357890
O      2.691664    0.367844   -2.824134
H      2.494101   -2.342505    2.741352
H      2.958980   -0.647193    2.765353
H      3.889673   -1.753261    1.754085
H      3.025054   -3.769137    0.923096
H      2.790033   -5.262363   -0.993545
H      1.498640   -4.540941   -3.006194
H      0.462240   -2.317702   -3.058652
H      0.084889   -0.237417   -2.228811
H     -0.544217   -0.928241    0.668537
H     -1.937658    1.433849   -1.976988
H     -4.138925    1.176396   -2.985790
H     -5.550411   -0.790756   -2.435045
H     -4.736538   -2.505630   -0.887274
H     -2.589672   -4.035657    1.603322
H     -4.054759   -3.094727    1.305687
H     -3.359371   -4.166298    0.022934
H     -3.470440    2.010002    0.877111
H     -5.535844    1.005865    1.815430
H     -5.382158   -0.632401    3.678705
H     -1.091189   -0.212106    3.713275
H      1.501790    1.846424    0.824232
H      0.815814    4.860777   -0.750096
H      3.808532    1.257414    0.556476
H      5.894499    4.879640   -0.478487
H      4.861995    4.834463   -2.736137
H      3.298203    3.010027   -3.351255
