86

C      2.530339   -3.645733   -0.267877
O      1.951650   -4.534608   -1.144368
C      2.737114   -4.678518   -2.324377
C      3.738458   -3.965583    0.355603
C      4.306443   -3.080848    1.270642
C      3.653960   -1.880167    1.572043
C      2.437511   -1.570789    0.959326
C      1.849649   -2.453078    0.036326
C      0.473783   -2.177388   -0.568388
C     -0.618894   -2.391631    0.529216
C     -1.635859   -3.518303    0.304864
C     -2.050707   -4.245390    1.442107
C     -2.945858   -5.312251    1.347114
C     -3.463640   -5.663112    0.110733
C     -3.082460   -4.956966   -1.033307
C     -2.176146   -3.887042   -0.942639
O     -1.804686   -3.135091   -2.026758
C     -1.989871   -3.705751   -3.321936
N     -1.231790   -1.062233    0.692177
C     -1.845759   -0.658255    1.862390
C     -2.488813    0.668124    1.894318
C     -3.876165    0.733224    1.734958
C     -4.513176    1.972187    1.723929
C     -3.763657    3.138497    1.888879
C     -2.371622    3.085674    2.089761
C     -1.563128    4.352363    2.311757
C     -1.519684    5.222548    1.047911
C     -2.089925    5.159302    3.504819
C     -1.735802    1.833167    2.091687
O     -1.919923   -1.343086    2.880228
C     -0.950542   -0.237019   -0.471933
C     -2.114002   -0.322791   -1.515341
O     -3.313652   -0.691807   -1.003232
O     -2.056146   -0.039451   -2.705092
N      0.288281   -0.783191   -1.003134
C      1.078473   -0.202775   -1.968069
C      1.206576    1.271946   -1.934693
C      2.310083    1.797509   -1.246205
C      2.495670    3.186371   -1.144101
C      3.696575    3.776521   -0.419005
C      3.821701    3.280212    1.021707
C      4.990891    3.514635   -1.202488
C      1.558207    4.031020   -1.759436
C      0.463326    3.501185   -2.455989
C      0.290475    2.120496   -2.555897
O      1.795017   -0.824821   -2.748326
H      2.987941   -3.703766   -2.761805
H      2.148208   -5.258044   -3.051764
H      3.647245   -5.247238   -2.110557
H      4.240680   -4.904647    0.149737
H      5.237259   -3.342139    1.759188
H      4.088005   -1.189556    2.291944
H      1.932016   -0.645549    1.220902
H      0.355745   -2.807435   -1.457988
H     -0.135394   -2.621927    1.490535
H     -1.682504   -3.962118    2.429128
H     -3.235697   -5.849917    2.243001
H     -4.163390   -6.495061    0.032756
H     -3.510045   -5.269701   -1.985355
H     -1.483320   -4.670978   -3.408185
H     -3.059566   -3.782372   -3.559375
H     -1.552277   -3.020311   -4.055726
H     -4.451802   -0.184824    1.604737
H     -5.590504    2.031868    1.581470
H     -4.282008    4.099380    1.871180
H     -0.532091    4.073016    2.554414
H     -2.518912    5.465448    0.663152
H     -0.989629    4.696992    0.247559
H     -0.983249    6.161248    1.238263
H     -2.138479    4.540133    4.410563
H     -1.428510    6.005723    3.724648
H     -3.095635    5.564405    3.322654
H     -0.664760    1.770471    2.260369
H     -0.817676    0.813651   -0.205089
H     -3.900230   -0.765956   -1.783926
H      3.028779    1.105118   -0.806605
H      3.566509    4.865397   -0.364875
H      4.665294    3.775748    1.518452
H      4.011873    2.204000    1.072828
H      2.914744    3.491536    1.589497
H      5.192815    2.444595   -1.326507
H      5.866037    3.965114   -0.706102
H      4.907171    3.959020   -2.201323
H      1.678819    5.115986   -1.717930
H     -0.253214    4.166423   -2.927977
H     -0.552524    1.728964   -3.128660
