72

C      2.319310   -3.509185    1.557304
C      2.494317   -4.670503    0.592876
F      1.300695   -5.156846    0.141395
F      3.184104   -4.315410   -0.526885
F      3.156052   -5.737348    1.117512
C      2.926523   -3.595530    2.828265
C      2.842020   -2.543997    3.739075
C      2.159373   -1.383586    3.402162
C      1.555719   -1.278021    2.148891
C      1.606988   -2.328831    1.204035
C      0.918397   -2.200787   -0.169119
C     -0.639128   -2.406331   -0.108059
C     -1.279100   -2.967776   -1.412127
C     -2.664734   -2.836710   -1.713537
C     -3.714660   -2.324203   -0.742701
F     -4.993662   -2.611946   -1.133746
F     -3.687514   -0.977887   -0.580353
F     -3.592038   -2.880244    0.490032
C     -3.137780   -3.221488   -2.988770
C     -2.302427   -3.809680   -3.932715
C     -0.981694   -4.056409   -3.607811
C     -0.486075   -3.656388   -2.364283
N     -1.070470   -1.003284    0.125599
C     -1.703781   -0.657849    1.325092
C     -2.016329    0.732184    1.632262
C     -2.546927    1.280600    2.788571
C     -2.637940    2.681856    2.587716
C     -3.058211    3.784266    3.350334
C     -2.983408    5.067497    2.780188
C     -2.495325    5.246884    1.481284
C     -2.075727    4.158873    0.705801
C     -2.166745    2.903085    1.301469
O     -1.795856    1.730642    0.724698
O     -1.976761   -1.541234    2.145135
C     -0.181113   -0.089457   -0.591332
C     -0.822229    0.289146   -1.971618
O     -0.229610   -0.313044   -3.037603
O     -1.818012    0.984925   -2.130082
N      1.053904   -0.858611   -0.757342
C      2.290173   -0.344774   -1.120702
C      2.370501    1.088763   -1.249366
C      2.146754    1.945881   -2.314106
C      2.325964    3.262776   -1.813754
C      2.675895    3.116116   -0.472719
C      2.966875    4.178808    0.381704
C      2.880798    5.462327   -0.171969
C      2.515143    5.654772   -1.507631
C      2.229294    4.563419   -2.341981
O      2.677785    1.802351   -0.124551
O      3.236194   -1.092581   -1.349651
H      3.490523   -4.489039    3.105859
H      3.311323   -2.630958    4.712204
H      2.092142   -0.556238    4.104731
H      1.048160   -0.345241    1.931286
H      1.434418   -2.869411   -0.849636
H     -0.922601   -3.079047    0.710199
H     -4.188492   -3.080779   -3.249527
H     -2.692589   -4.103823   -4.906278
H     -0.324497   -4.561945   -4.315852
H      0.551313   -3.926376   -2.183503
H     -2.822308    0.722378    3.675710
H     -3.435944    3.650141    4.359562
H     -3.313730    5.930696    3.359611
H     -2.445258    6.249391    1.063899
H     -1.696672    4.279629   -0.298818
H      0.068890    0.816233   -0.041681
H      0.454548   -0.959009   -2.759831
H      1.872005    1.656080   -3.319229
H      3.247668    4.017852    1.416017
H      3.111171    6.323631    0.452511
H      2.449982    6.663083   -1.910212
H      1.934429    4.727521   -3.373910
