
  xtb     03162223353D
 xtb: 6.3.3 (4ae9cef)
 72 78  0     0  0            999 V2000
    2.0564   -3.6277    1.4714 C   0  0  0  0  0  0  0  0  0  0  0  0
    1.9363   -4.7938    0.5280 C   0  0  0  0  0  0  0  0  0  0  0  0
    0.6806   -4.9721    0.0656 F   0  0  0  0  0  0  0  0  0  0  0  0
    2.7068   -4.6638   -0.5706 F   0  0  0  0  0  0  0  0  0  0  0  0
    2.2892   -5.9568    1.0860 F   0  0  0  0  0  0  0  0  0  0  0  0
    2.6030   -3.8451    2.7291 C   0  0  0  0  0  0  0  0  0  0  0  0
    2.7258   -2.7985    3.6239 C   0  0  0  0  0  0  0  0  0  0  0  0
    2.3063   -1.5329    3.2587 C   0  0  0  0  0  0  0  0  0  0  0  0
    1.7674   -1.3155    2.0042 C   0  0  0  0  0  0  0  0  0  0  0  0
    1.6326   -2.3515    1.0905 C   0  0  0  0  0  0  0  0  0  0  0  0
    0.9871   -2.1208   -0.2574 C   0  0  0  0  0  0  0  0  0  0  0  0
   -0.5432   -2.2785   -0.1313 C   0  0  0  0  0  0  0  0  0  0  0  0
   -1.2665   -2.6704   -1.4047 C   0  0  0  0  0  0  0  0  0  0  0  0
   -2.6423   -2.9378   -1.3962 C   0  0  0  0  0  0  0  0  0  0  0  0
   -3.4585   -2.9338   -0.1267 C   0  0  0  0  0  0  0  0  0  0  0  0
   -4.6952   -3.4244   -0.3196 F   0  0  0  0  0  0  0  0  0  0  0  0
   -3.6389   -1.7040    0.3820 F   0  0  0  0  0  0  0  0  0  0  0  0
   -2.9273   -3.6905    0.8454 F   0  0  0  0  0  0  0  0  0  0  0  0
   -3.3166   -3.2155   -2.5783 C   0  0  0  0  0  0  0  0  0  0  0  0
   -2.6429   -3.2490   -3.7846 C   0  0  0  0  0  0  0  0  0  0  0  0
   -1.2831   -3.0123   -3.8051 C   0  0  0  0  0  0  0  0  0  0  0  0
   -0.6117   -2.7248   -2.6299 C   0  0  0  0  0  0  0  0  0  0  0  0
   -0.9335   -0.9263    0.2564 N   0  0  0  0  0  0  0  0  0  0  0  0
   -1.3628   -0.6918    1.5427 C   0  0  0  0  0  0  0  0  0  0  0  0
   -1.7556    0.6788    1.8852 C   0  0  0  0  0  0  0  0  0  0  0  0
   -2.3057    1.0708    3.0737 C   0  0  0  0  0  0  0  0  0  0  0  0
   -2.6000    2.4553    2.9424 C   0  0  0  0  0  0  0  0  0  0  0  0
   -3.1624    3.4298    3.7680 C   0  0  0  0  0  0  0  0  0  0  0  0
   -3.2933    4.7054    3.2684 C   0  0  0  0  0  0  0  0  0  0  0  0
   -2.8780    5.0285    1.9729 C   0  0  0  0  0  0  0  0  0  0  0  0
   -2.3173    4.0854    1.1364 C   0  0  0  0  0  0  0  0  0  0  0  0
   -2.1876    2.7989    1.6371 C   0  0  0  0  0  0  0  0  0  0  0  0
   -1.6697    1.7219    1.0070 O   0  0  0  0  0  0  0  0  0  0  0  0
   -1.4837   -1.5943    2.3453 O   0  0  0  0  0  0  0  0  0  0  0  0
   -0.1555   -0.0402   -0.5638 C   0  0  0  0  0  0  0  0  0  0  0  0
   -0.8837    0.1951   -1.9192 C   0  0  0  0  0  0  0  0  0  0  0  0
   -0.1031    0.2121   -2.9983 O   0  0  0  0  0  0  0  0  0  0  0  0
   -2.0606    0.3747   -1.9753 O   0  0  0  0  0  0  0  0  0  0  0  0
    1.1185   -0.7358   -0.7131 N   0  0  0  0  0  0  0  0  0  0  0  0
    2.3762   -0.2220   -0.8765 C   0  0  0  0  0  0  0  0  0  0  0  0
    2.5170    1.2082   -1.1863 C   0  0  0  0  0  0  0  0  0  0  0  0
    3.6948    1.8865   -1.3243 C   0  0  0  0  0  0  0  0  0  0  0  0
    3.3497    3.2347   -1.6183 C   0  0  0  0  0  0  0  0  0  0  0  0
    1.9398    3.2634   -1.6376 C   0  0  0  0  0  0  0  0  0  0  0  0
    1.2238    4.4219   -1.8949 C   0  0  0  0  0  0  0  0  0  0  0  0
    1.9574    5.5656   -2.1348 C   0  0  0  0  0  0  0  0  0  0  0  0
    3.3558    5.5569   -2.1213 C   0  0  0  0  0  0  0  0  0  0  0  0
    4.0664    4.4061   -1.8670 C   0  0  0  0  0  0  0  0  0  0  0  0
    1.4395    2.0337   -1.3749 O   0  0  0  0  0  0  0  0  0  0  0  0
    3.3547   -0.9431   -0.8114 O   0  0  0  0  0  0  0  0  0  0  0  0
    2.9284   -4.8358    3.0054 H   0  0  0  0  0  0  0  0  0  0  0  0
    3.1473   -2.9745    4.6009 H   0  0  0  0  0  0  0  0  0  0  0  0
    2.3946   -0.7096    3.9509 H   0  0  0  0  0  0  0  0  0  0  0  0
    1.4539   -0.3171    1.7381 H   0  0  0  0  0  0  0  0  0  0  0  0
    1.4416   -2.7852   -0.9923 H   0  0  0  0  0  0  0  0  0  0  0  0
   -0.8010   -2.9554    0.6873 H   0  0  0  0  0  0  0  0  0  0  0  0
   -4.3776   -3.4078   -2.5520 H   0  0  0  0  0  0  0  0  0  0  0  0
   -3.1793   -3.4606   -4.6958 H   0  0  0  0  0  0  0  0  0  0  0  0
   -0.7366   -3.0399   -4.7352 H   0  0  0  0  0  0  0  0  0  0  0  0
    0.4490   -2.5438   -2.6932 H   0  0  0  0  0  0  0  0  0  0  0  0
   -2.4798    0.4342    3.9162 H   0  0  0  0  0  0  0  0  0  0  0  0
   -3.4857    3.1798    4.7663 H   0  0  0  0  0  0  0  0  0  0  0  0
   -3.7280    5.4784    3.8841 H   0  0  0  0  0  0  0  0  0  0  0  0
   -3.0028    6.0408    1.6197 H   0  0  0  0  0  0  0  0  0  0  0  0
   -2.0024    4.3251    0.1338 H   0  0  0  0  0  0  0  0  0  0  0  0
   -0.0407    0.9416   -0.0958 H   0  0  0  0  0  0  0  0  0  0  0  0
    0.8249    0.0254   -2.7871 H   0  0  0  0  0  0  0  0  0  0  0  0
    4.6717    1.4605   -1.2243 H   0  0  0  0  0  0  0  0  0  0  0  0
    0.1461    4.4159   -1.9106 H   0  0  0  0  0  0  0  0  0  0  0  0
    1.4409    6.4907   -2.3395 H   0  0  0  0  0  0  0  0  0  0  0  0
    3.8842    6.4775   -2.3169 H   0  0  0  0  0  0  0  0  0  0  0  0
    5.1449    4.3993   -1.8588 H   0  0  0  0  0  0  0  0  0  0  0  0
  1  2  1  0  0  0  0
  2  3  1  0  0  0  0
  2  4  1  0  0  0  0
  2  5  1  0  0  0  0
  1  6  4  0  0  0  0
  6  7  4  0  0  0  0
  7  8  4  0  0  0  0
  8  9  4  0  0  0  0
  1 10  4  0  0  0  0
  9 10  4  0  0  0  0
 10 11  1  0  0  0  0
 11 12  1  0  0  0  0
 12 13  1  0  0  0  0
 13 14  4  0  0  0  0
 14 15  1  0  0  0  0
 15 16  1  0  0  0  0
 15 17  1  0  0  0  0
 15 18  1  0  0  0  0
 14 19  4  0  0  0  0
 19 20  4  0  0  0  0
 20 21  4  0  0  0  0
 13 22  4  0  0  0  0
 21 22  4  0  0  0  0
 12 23  1  0  0  0  0
 23 24  1  0  0  0  0
 24 25  1  0  0  0  0
 25 26  2  0  0  0  0
 26 27  4  0  0  0  0
 27 28  4  0  0  0  0
 28 29  2  0  0  0  0
 29 30  4  0  0  0  0
 30 31  4  0  0  0  0
 27 32  4  0  0  0  0
 31 32  4  0  0  0  0
 25 33  1  0  0  0  0
 32 33  1  0  0  0  0
 24 34  2  0  0  0  0
 23 35  1  0  0  0  0
 35 36  1  0  0  0  0
 36 37  1  0  0  0  0
 36 38  2  0  0  0  0
 11 39  1  0  0  0  0
 35 39  1  0  0  0  0
 39 40  1  0  0  0  0
 40 41  1  0  0  0  0
 41 42  2  0  0  0  0
 42 43  4  0  0  0  0
 43 44  4  0  0  0  0
 44 45  4  0  0  0  0
 45 46  4  0  0  0  0
 46 47  4  0  0  0  0
 43 48  4  0  0  0  0
 47 48  2  0  0  0  0
 41 49  1  0  0  0  0
 44 49  1  0  0  0  0
 40 50  2  0  0  0  0
  6 51  1  0  0  0  0
  7 52  1  0  0  0  0
  8 53  1  0  0  0  0
  9 54  1  0  0  0  0
 11 55  1  0  0  0  0
 12 56  1  0  0  0  0
 19 57  1  0  0  0  0
 20 58  1  0  0  0  0
 21 59  1  0  0  0  0
 22 60  1  0  0  0  0
 26 61  1  0  0  0  0
 28 62  1  0  0  0  0
 29 63  1  0  0  0  0
 30 64  1  0  0  0  0
 31 65  1  0  0  0  0
 35 66  1  0  0  0  0
 37 67  1  0  0  0  0
 42 68  1  0  0  0  0
 45 69  1  0  0  0  0
 46 70  1  0  0  0  0
 47 71  1  0  0  0  0
 48 72  1  0  0  0  0
M  END
