
  xtb     03172200493D
 xtb: 6.3.3 (4ae9cef)
 86 92  0     0  0            999 V2000
    2.4055   -4.2899    1.2259 C   0  0  0  0  0  0  0  0  0  0  0  0
    2.3480   -5.1764    0.0109 C   0  0  0  0  0  0  0  0  0  0  0  0
    2.8873   -4.6325   -1.0875 F   0  0  0  0  0  0  0  0  0  0  0  0
    2.9781   -6.3457    0.1925 F   0  0  0  0  0  0  0  0  0  0  0  0
    1.0780   -5.5067   -0.3273 F   0  0  0  0  0  0  0  0  0  0  0  0
    3.1362   -4.7298    2.3236 C   0  0  0  0  0  0  0  0  0  0  0  0
    3.2264   -3.9508    3.4615 C   0  0  0  0  0  0  0  0  0  0  0  0
    2.5856   -2.7254    3.5040 C   0  0  0  0  0  0  0  0  0  0  0  0
    1.8566   -2.2894    2.4142 C   0  0  0  0  0  0  0  0  0  0  0  0
    1.7544   -3.0546    1.2578 C   0  0  0  0  0  0  0  0  0  0  0  0
    0.9516   -2.5255    0.0953 C   0  0  0  0  0  0  0  0  0  0  0  0
   -0.5712   -2.5202    0.3680 C   0  0  0  0  0  0  0  0  0  0  0  0
   -1.2830   -3.7213   -0.1975 C   0  0  0  0  0  0  0  0  0  0  0  0
   -1.5672   -3.9352   -1.5485 C   0  0  0  0  0  0  0  0  0  0  0  0
   -1.2985   -2.9529   -2.6569 C   0  0  0  0  0  0  0  0  0  0  0  0
   -0.2208   -2.1628   -2.5067 F   0  0  0  0  0  0  0  0  0  0  0  0
   -1.1080   -3.5688   -3.8365 F   0  0  0  0  0  0  0  0  0  0  0  0
   -2.3342   -2.1125   -2.8559 F   0  0  0  0  0  0  0  0  0  0  0  0
   -2.2169   -5.1005   -1.9480 C   0  0  0  0  0  0  0  0  0  0  0  0
   -2.5615   -6.0724   -1.0311 C   0  0  0  0  0  0  0  0  0  0  0  0
   -2.2657   -5.8793    0.3058 C   0  0  0  0  0  0  0  0  0  0  0  0
   -1.6393   -4.7169    0.7072 C   0  0  0  0  0  0  0  0  0  0  0  0
   -1.0190   -1.2459   -0.1782 N   0  0  0  0  0  0  0  0  0  0  0  0
   -2.3570   -0.9567   -0.2249 C   0  0  0  0  0  0  0  0  0  0  0  0
   -2.7224    0.3964   -0.7281 C   0  0  0  0  0  0  0  0  0  0  0  0
   -2.2073    0.9269   -1.9061 C   0  0  0  0  0  0  0  0  0  0  0  0
   -2.6180    2.1793   -2.3279 C   0  0  0  0  0  0  0  0  0  0  0  0
   -3.5329    2.9052   -1.5871 C   0  0  0  0  0  0  0  0  0  0  0  0
   -4.0789    2.3749   -0.4201 C   0  0  0  0  0  0  0  0  0  0  0  0
   -5.0786    3.1245    0.3561 C   0  0  0  0  0  0  0  0  0  0  0  0
   -6.1866    2.4731    0.8936 C   0  0  0  0  0  0  0  0  0  0  0  0
   -7.1306    3.1756    1.6191 C   0  0  0  0  0  0  0  0  0  0  0  0
   -6.9802    4.5371    1.8247 C   0  0  0  0  0  0  0  0  0  0  0  0
   -5.8809    5.1935    1.2970 C   0  0  0  0  0  0  0  0  0  0  0  0
   -4.9385    4.4943    0.5657 C   0  0  0  0  0  0  0  0  0  0  0  0
   -3.6690    1.1115   -0.0073 C   0  0  0  0  0  0  0  0  0  0  0  0
   -3.1827   -1.7779    0.1142 O   0  0  0  0  0  0  0  0  0  0  0  0
    0.0651   -0.3038   -0.1188 C   0  0  0  0  0  0  0  0  0  0  0  0
    0.0690    0.5414    1.1784 C   0  0  0  0  0  0  0  0  0  0  0  0
   -1.1385    0.6406    1.7242 O   0  0  0  0  0  0  0  0  0  0  0  0
    1.0500    1.0653    1.6263 O   0  0  0  0  0  0  0  0  0  0  0  0
    1.2443   -1.1261   -0.1917 N   0  0  0  0  0  0  0  0  0  0  0  0
    2.5256   -0.7258   -0.4371 C   0  0  0  0  0  0  0  0  0  0  0  0
    2.6775    0.6597   -0.9641 C   0  0  0  0  0  0  0  0  0  0  0  0
    3.4827    1.5645   -0.2913 C   0  0  0  0  0  0  0  0  0  0  0  0
    3.6829    2.8462   -0.7963 C   0  0  0  0  0  0  0  0  0  0  0  0
    4.5420    3.8040   -0.0843 C   0  0  0  0  0  0  0  0  0  0  0  0
    5.7359    3.3839    0.4976 C   0  0  0  0  0  0  0  0  0  0  0  0
    6.5532    4.2853    1.1539 C   0  0  0  0  0  0  0  0  0  0  0  0
    6.1892    5.6183    1.2448 C   0  0  0  0  0  0  0  0  0  0  0  0
    5.0014    6.0454    0.6749 C   0  0  0  0  0  0  0  0  0  0  0  0
    4.1852    5.1468    0.0131 C   0  0  0  0  0  0  0  0  0  0  0  0
    3.0715    3.1962   -1.9982 C   0  0  0  0  0  0  0  0  0  0  0  0
    2.2914    2.2837   -2.6853 C   0  0  0  0  0  0  0  0  0  0  0  0
    2.0898    1.0136   -2.1750 C   0  0  0  0  0  0  0  0  0  0  0  0
    3.4585   -1.4795   -0.2638 O   0  0  0  0  0  0  0  0  0  0  0  0
    3.6403   -5.6826    2.2813 H   0  0  0  0  0  0  0  0  0  0  0  0
    3.8014   -4.2981    4.3055 H   0  0  0  0  0  0  0  0  0  0  0  0
    2.6578   -2.1035    4.3833 H   0  0  0  0  0  0  0  0  0  0  0  0
    1.3815   -1.3218    2.4501 H   0  0  0  0  0  0  0  0  0  0  0  0
    1.1792   -3.0999   -0.8068 H   0  0  0  0  0  0  0  0  0  0  0  0
   -0.7413   -2.5186    1.4560 H   0  0  0  0  0  0  0  0  0  0  0  0
   -2.4481   -5.2441   -2.9923 H   0  0  0  0  0  0  0  0  0  0  0  0
   -3.0595   -6.9702   -1.3613 H   0  0  0  0  0  0  0  0  0  0  0  0
   -2.5268   -6.6287    1.0368 H   0  0  0  0  0  0  0  0  0  0  0  0
   -1.4187   -4.5691    1.7538 H   0  0  0  0  0  0  0  0  0  0  0  0
   -1.5244    0.3538   -2.5138 H   0  0  0  0  0  0  0  0  0  0  0  0
   -2.2263    2.5888   -3.2472 H   0  0  0  0  0  0  0  0  0  0  0  0
   -3.8547    3.8764   -1.9331 H   0  0  0  0  0  0  0  0  0  0  0  0
   -6.3163    1.4150    0.7205 H   0  0  0  0  0  0  0  0  0  0  0  0
   -7.9887    2.6597    2.0242 H   0  0  0  0  0  0  0  0  0  0  0  0
   -7.7170    5.0847    2.3933 H   0  0  0  0  0  0  0  0  0  0  0  0
   -5.7573    6.2547    1.4570 H   0  0  0  0  0  0  0  0  0  0  0  0
   -4.0752    5.0093    0.1693 H   0  0  0  0  0  0  0  0  0  0  0  0
   -4.0691    0.6758    0.8955 H   0  0  0  0  0  0  0  0  0  0  0  0
    0.0251    0.4222   -0.9413 H   0  0  0  0  0  0  0  0  0  0  0  0
   -1.1253    1.2114    2.5108 H   0  0  0  0  0  0  0  0  0  0  0  0
    3.9319    1.2705    0.6444 H   0  0  0  0  0  0  0  0  0  0  0  0
    6.0323    2.3488    0.4144 H   0  0  0  0  0  0  0  0  0  0  0  0
    7.4802    3.9474    1.5938 H   0  0  0  0  0  0  0  0  0  0  0  0
    6.8288    6.3221    1.7567 H   0  0  0  0  0  0  0  0  0  0  0  0
    4.7104    7.0835    0.7463 H   0  0  0  0  0  0  0  0  0  0  0  0
    3.2520    5.4831   -0.4156 H   0  0  0  0  0  0  0  0  0  0  0  0
    3.2365    4.1798   -2.4133 H   0  0  0  0  0  0  0  0  0  0  0  0
    1.8456    2.5605   -3.6295 H   0  0  0  0  0  0  0  0  0  0  0  0
    1.5102    0.2871   -2.7266 H   0  0  0  0  0  0  0  0  0  0  0  0
  1  2  1  0  0  0  0
  2  3  1  0  0  0  0
  2  4  1  0  0  0  0
  2  5  1  0  0  0  0
  1  6  4  0  0  0  0
  6  7  4  0  0  0  0
  7  8  4  0  0  0  0
  8  9  4  0  0  0  0
  1 10  4  0  0  0  0
  9 10  4  0  0  0  0
 10 11  1  0  0  0  0
 11 12  1  0  0  0  0
 12 13  1  0  0  0  0
 13 14  4  0  0  0  0
 14 15  1  0  0  0  0
 15 16  1  0  0  0  0
 15 17  1  0  0  0  0
 15 18  1  0  0  0  0
 14 19  4  0  0  0  0
 19 20  4  0  0  0  0
 20 21  4  0  0  0  0
 13 22  4  0  0  0  0
 21 22  4  0  0  0  0
 12 23  1  0  0  0  0
 23 24  1  0  0  0  0
 24 25  1  0  0  0  0
 25 26  4  0  0  0  0
 26 27  4  0  0  0  0
 27 28  4  0  0  0  0
 28 29  4  0  0  0  0
 29 30  1  0  0  0  0
 30 31  4  0  0  0  0
 31 32  4  0  0  0  0
 32 33  4  0  0  0  0
 33 34  4  0  0  0  0
 30 35  4  0  0  0  0
 34 35  4  0  0  0  0
 25 36  4  0  0  0  0
 29 36  4  0  0  0  0
 24 37  2  0  0  0  0
 23 38  1  0  0  0  0
 38 39  1  0  0  0  0
 39 40  1  0  0  0  0
 39 41  2  0  0  0  0
 11 42  1  0  0  0  0
 38 42  1  0  0  0  0
 42 43  1  0  0  0  0
 43 44  1  0  0  0  0
 44 45  4  0  0  0  0
 45 46  4  0  0  0  0
 46 47  1  0  0  0  0
 47 48  4  0  0  0  0
 48 49  4  0  0  0  0
 49 50  4  0  0  0  0
 50 51  4  0  0  0  0
 47 52  4  0  0  0  0
 51 52  4  0  0  0  0
 46 53  4  0  0  0  0
 53 54  4  0  0  0  0
 44 55  4  0  0  0  0
 54 55  4  0  0  0  0
 43 56  2  0  0  0  0
  6 57  1  0  0  0  0
  7 58  1  0  0  0  0
  8 59  1  0  0  0  0
  9 60  1  0  0  0  0
 11 61  1  0  0  0  0
 12 62  1  0  0  0  0
 19 63  1  0  0  0  0
 20 64  1  0  0  0  0
 21 65  1  0  0  0  0
 22 66  1  0  0  0  0
 26 67  1  0  0  0  0
 27 68  1  0  0  0  0
 28 69  1  0  0  0  0
 31 70  1  0  0  0  0
 32 71  1  0  0  0  0
 33 72  1  0  0  0  0
 34 73  1  0  0  0  0
 35 74  1  0  0  0  0
 36 75  1  0  0  0  0
 38 76  1  0  0  0  0
 40 77  1  0  0  0  0
 45 78  1  0  0  0  0
 48 79  1  0  0  0  0
 49 80  1  0  0  0  0
 50 81  1  0  0  0  0
 51 82  1  0  0  0  0
 52 83  1  0  0  0  0
 53 84  1  0  0  0  0
 54 85  1  0  0  0  0
 55 86  1  0  0  0  0
M  END
