90

C      3.020717   -2.733259    3.373665
C      2.102186   -2.289693    4.320150
C      1.015020   -1.535723    3.912380
C      0.852319   -1.223788    2.560459
C      1.771694   -1.646399    1.567510
C      2.869371   -2.426619    2.010184
C      3.819535   -2.890333    1.091697
C      3.705416   -2.610787   -0.264362
C      2.644646   -1.841787   -0.719191
C      1.675833   -1.333777    0.172108
C      0.588653   -0.455914   -0.446206
C     -0.819036   -1.116390   -0.410360
C     -1.207982   -1.738490   -1.753794
C     -1.838124   -0.932138   -2.723383
C     -2.203363   -1.444626   -3.963629
C     -1.928749   -2.770999   -4.269936
C     -1.286331   -3.604373   -3.345592
C     -0.914708   -3.103648   -2.067985
C     -0.274472   -4.012214   -1.188037
C     -0.004044   -5.334077   -1.552849
C     -0.370789   -5.796498   -2.807043
C     -1.012770   -4.936242   -3.693886
N     -1.745462   -0.049129    0.009902
C     -2.855516   -0.402388    0.765718
C     -3.910647    0.609296    0.978973
C     -4.564507    1.175536   -0.115257
C     -5.571579    2.121601    0.094782
C     -5.968676    2.483193    1.396267
C     -7.060864    3.532384    1.558361
C     -7.109329    4.208977    2.931144
C     -8.434843    2.942379    1.227408
C     -5.337979    1.855452    2.482961
C     -4.322083    0.915936    2.278460
O     -3.017218   -1.512988    1.262327
C     -1.010638    1.185407    0.300558
C     -1.353842    2.331935   -0.706174
O     -0.448601    2.510396   -1.700588
O     -2.372139    3.009843   -0.727967
N      0.397361    0.834158    0.218873
C      1.332798    1.767018    0.617851
C      2.735564    1.610083    0.193280
C      3.726547    1.397236    1.154534
C      5.059809    1.292356    0.754504
C      5.417509    1.412869   -0.599458
C      6.863127    1.354672   -1.066843
C      7.492383    2.751144   -1.020986
C      7.726555    0.349653   -0.291563
C      4.407364    1.650468   -1.546868
C      3.071489    1.749962   -1.155280
O      1.032065    2.750687    1.291522
H      3.867866   -3.322175    3.713035
H      2.237810   -2.533551    5.370637
H      0.285695   -1.187439    4.639129
H     -0.023499   -0.636970    2.306590
H      4.668140   -3.478481    1.433069
H      4.452674   -2.979829   -0.960831
H      2.587028   -1.624952   -1.784582
H      0.857259   -0.208269   -1.481598
H     -0.868553   -1.886292    0.362505
H     -2.065114    0.112605   -2.521921
H     -2.700120   -0.810292   -4.692526
H     -2.224634   -3.153724   -5.245787
H      0.027617   -3.715820   -0.187370
H      0.491993   -5.998297   -0.849591
H     -0.164093   -6.824590   -3.097861
H     -1.301810   -5.321423   -4.669351
H     -4.285501    0.899949   -1.130596
H     -6.048331    2.577010   -0.771162
H     -6.849773    4.328832    0.831944
H     -6.135487    4.621577    3.210482
H     -7.832528    5.033740    2.923554
H     -7.426151    3.515815    3.717703
H     -9.212818    3.708335    1.307731
H     -8.466057    2.548304    0.205917
H     -8.690165    2.123132    1.908334
H     -5.635568    2.072823    3.506539
H     -3.856547    0.428871    3.133701
H     -1.229555    1.546785    1.314661
H     -0.778658    3.318635   -2.153402
H      3.460119    1.304845    2.205779
H      5.814122    1.124542    1.521734
H      6.863218    1.017950   -2.112247
H      7.535745    3.142552    0.003599
H      6.914809    3.461569   -1.625094
H      8.512609    2.726485   -1.418438
H      7.267868   -0.647139   -0.288226
H      8.713452    0.260410   -0.760825
H      7.889610    0.653698    0.747557
H      4.660005    1.781123   -2.596217
H      2.303653    1.959295   -1.896004
