
  xtb     03162223223D
 xtb: 6.3.3 (4ae9cef)
 90 96  0     0  0            999 V2000
    2.6959   -1.9201    3.3002 C   0  0  0  0  0  0  0  0  0  0  0  0
    1.6543   -1.4848    4.0684 C   0  0  0  0  0  0  0  0  0  0  0  0
    0.5220   -0.9312    3.4552 C   0  0  0  0  0  0  0  0  0  0  0  0
    0.4543   -0.8102    2.0950 C   0  0  0  0  0  0  0  0  0  0  0  0
    1.5169   -1.2375    1.2682 C   0  0  0  0  0  0  0  0  0  0  0  0
    2.6559   -1.8160    1.8941 C   0  0  0  0  0  0  0  0  0  0  0  0
    3.7269   -2.2832    1.1060 C   0  0  0  0  0  0  0  0  0  0  0  0
    3.6794   -2.1876   -0.2544 C   0  0  0  0  0  0  0  0  0  0  0  0
    2.5745   -1.5948   -0.8747 C   0  0  0  0  0  0  0  0  0  0  0  0
    1.5135   -1.1131   -0.1481 C   0  0  0  0  0  0  0  0  0  0  0  0
    0.3673   -0.4851   -0.8980 C   0  0  0  0  0  0  0  0  0  0  0  0
   -0.9561   -1.3054   -0.8068 C   0  0  0  0  0  0  0  0  0  0  0  0
   -1.2975   -1.9571   -2.1279 C   0  0  0  0  0  0  0  0  0  0  0  0
   -2.2346   -1.3975   -2.9573 C   0  0  0  0  0  0  0  0  0  0  0  0
   -2.5303   -1.9549   -4.2090 C   0  0  0  0  0  0  0  0  0  0  0  0
   -1.8751   -3.0738   -4.6327 C   0  0  0  0  0  0  0  0  0  0  0  0
   -0.9154   -3.6950   -3.8068 C   0  0  0  0  0  0  0  0  0  0  0  0
   -0.6238   -3.1442   -2.5282 C   0  0  0  0  0  0  0  0  0  0  0  0
    0.3162   -3.8179   -1.7178 C   0  0  0  0  0  0  0  0  0  0  0  0
    0.9502   -4.9471   -2.1569 C   0  0  0  0  0  0  0  0  0  0  0  0
    0.6777   -5.4721   -3.4275 C   0  0  0  0  0  0  0  0  0  0  0  0
   -0.2425   -4.8604   -4.2300 C   0  0  0  0  0  0  0  0  0  0  0  0
   -1.9468   -0.3360   -0.3666 N   0  0  0  0  0  0  0  0  0  0  0  0
   -3.0916   -0.7447    0.2520 C   0  0  0  0  0  0  0  0  0  0  0  0
   -3.9566    0.3623    0.7558 C   0  0  0  0  0  0  0  0  0  0  0  0
   -5.0837    0.7436    0.0439 C   0  0  0  0  0  0  0  0  0  0  0  0
   -5.8908    1.7594    0.5221 C   0  0  0  0  0  0  0  0  0  0  0  0
   -5.6006    2.4058    1.7164 C   0  0  0  0  0  0  0  0  0  0  0  0
   -6.4915    3.5125    2.2237 C   0  0  0  0  0  0  0  0  0  0  0  0
   -5.7031    4.8119    2.4006 C   0  0  0  0  0  0  0  0  0  0  0  0
   -7.1665    3.1017    3.5349 C   0  0  0  0  0  0  0  0  0  0  0  0
   -4.4790    2.0021    2.4318 C   0  0  0  0  0  0  0  0  0  0  0  0
   -3.6620    0.9934    1.9590 C   0  0  0  0  0  0  0  0  0  0  0  0
   -3.3573   -1.9218    0.3630 O   0  0  0  0  0  0  0  0  0  0  0  0
   -1.4338    1.0049   -0.4671 C   0  0  0  0  0  0  0  0  0  0  0  0
   -1.8818    1.6845   -1.7760 C   0  0  0  0  0  0  0  0  0  0  0  0
   -0.8715    1.8767   -2.6212 O   0  0  0  0  0  0  0  0  0  0  0  0
   -3.0135    2.0028   -2.0108 O   0  0  0  0  0  0  0  0  0  0  0  0
   -0.0052    0.8346   -0.4128 N   0  0  0  0  0  0  0  0  0  0  0  0
    0.7716    1.8009    0.1472 C   0  0  0  0  0  0  0  0  0  0  0  0
    2.2426    1.5928    0.0621 C   0  0  0  0  0  0  0  0  0  0  0  0
    3.0043    1.5464    1.2229 C   0  0  0  0  0  0  0  0  0  0  0  0
    4.3733    1.3866    1.1483 C   0  0  0  0  0  0  0  0  0  0  0  0
    5.0170    1.3004   -0.0809 C   0  0  0  0  0  0  0  0  0  0  0  0
    6.5135    1.1315   -0.1663 C   0  0  0  0  0  0  0  0  0  0  0  0
    7.2299    2.3394    0.4418 C   0  0  0  0  0  0  0  0  0  0  0  0
    6.9538   -0.1632    0.5195 C   0  0  0  0  0  0  0  0  0  0  0  0
    4.2497    1.3870   -1.2358 C   0  0  0  0  0  0  0  0  0  0  0  0
    2.8764    1.5286   -1.1715 C   0  0  0  0  0  0  0  0  0  0  0  0
    0.2708    2.7820    0.6623 O   0  0  0  0  0  0  0  0  0  0  0  0
    3.5719   -2.3571    3.7579 H   0  0  0  0  0  0  0  0  0  0  0  0
    1.6918   -1.5679    5.1444 H   0  0  0  0  0  0  0  0  0  0  0  0
   -0.3032   -0.5990    4.0676 H   0  0  0  0  0  0  0  0  0  0  0  0
   -0.4311   -0.3810    1.6582 H   0  0  0  0  0  0  0  0  0  0  0  0
    4.5809   -2.7223    1.6011 H   0  0  0  0  0  0  0  0  0  0  0  0
    4.4891   -2.5587   -0.8647 H   0  0  0  0  0  0  0  0  0  0  0  0
    2.5612   -1.5164   -1.9521 H   0  0  0  0  0  0  0  0  0  0  0  0
    0.6488   -0.4093   -1.9584 H   0  0  0  0  0  0  0  0  0  0  0  0
   -0.8978   -2.0811   -0.0344 H   0  0  0  0  0  0  0  0  0  0  0  0
   -2.7760   -0.5169   -2.6473 H   0  0  0  0  0  0  0  0  0  0  0  0
   -3.2785   -1.4849   -4.8299 H   0  0  0  0  0  0  0  0  0  0  0  0
   -2.0866   -3.5065   -5.5998 H   0  0  0  0  0  0  0  0  0  0  0  0
    0.5395   -3.4479   -0.7306 H   0  0  0  0  0  0  0  0  0  0  0  0
    1.6648   -5.4439   -1.5172 H   0  0  0  0  0  0  0  0  0  0  0  0
    1.1900   -6.3632   -3.7591 H   0  0  0  0  0  0  0  0  0  0  0  0
   -0.4749   -5.2621   -5.2060 H   0  0  0  0  0  0  0  0  0  0  0  0
   -5.3224    0.2483   -0.8848 H   0  0  0  0  0  0  0  0  0  0  0  0
   -6.7622    2.0537   -0.0450 H   0  0  0  0  0  0  0  0  0  0  0  0
   -7.2745    3.6879    1.4773 H   0  0  0  0  0  0  0  0  0  0  0  0
   -5.2004    5.0782    1.4731 H   0  0  0  0  0  0  0  0  0  0  0  0
   -6.3734    5.6227    2.6777 H   0  0  0  0  0  0  0  0  0  0  0  0
   -4.9520    4.7084    3.1798 H   0  0  0  0  0  0  0  0  0  0  0  0
   -7.8505    3.8802    3.8660 H   0  0  0  0  0  0  0  0  0  0  0  0
   -7.7292    2.1808    3.3985 H   0  0  0  0  0  0  0  0  0  0  0  0
   -6.4274    2.9393    4.3155 H   0  0  0  0  0  0  0  0  0  0  0  0
   -4.2335    2.4800    3.3683 H   0  0  0  0  0  0  0  0  0  0  0  0
   -2.7964    0.6883    2.5311 H   0  0  0  0  0  0  0  0  0  0  0  0
   -1.7781    1.6504    0.3545 H   0  0  0  0  0  0  0  0  0  0  0  0
   -1.1800    2.3308   -3.4228 H   0  0  0  0  0  0  0  0  0  0  0  0
    2.5133    1.6212    2.1817 H   0  0  0  0  0  0  0  0  0  0  0  0
    4.9453    1.3346    2.0623 H   0  0  0  0  0  0  0  0  0  0  0  0
    6.7906    1.0683   -1.2246 H   0  0  0  0  0  0  0  0  0  0  0  0
    7.0047    2.4290    1.5014 H   0  0  0  0  0  0  0  0  0  0  0  0
    6.9150    3.2552   -0.0536 H   0  0  0  0  0  0  0  0  0  0  0  0
    8.3066    2.2354    0.3266 H   0  0  0  0  0  0  0  0  0  0  0  0
    6.4346   -1.0144    0.0856 H   0  0  0  0  0  0  0  0  0  0  0  0
    8.0251   -0.3075    0.3971 H   0  0  0  0  0  0  0  0  0  0  0  0
    6.7306   -0.1326    1.5828 H   0  0  0  0  0  0  0  0  0  0  0  0
    4.7343    1.3415   -2.2011 H   0  0  0  0  0  0  0  0  0  0  0  0
    2.2929    1.6008   -2.0780 H   0  0  0  0  0  0  0  0  0  0  0  0
  1  2  2  0  0  0  0
  2  3  4  0  0  0  0
  3  4  2  0  0  0  0
  4  5  4  0  0  0  0
  1  6  4  0  0  0  0
  5  6  4  0  0  0  0
  6  7  4  0  0  0  0
  7  8  2  0  0  0  0
  8  9  4  0  0  0  0
  5 10  4  0  0  0  0
  9 10  2  0  0  0  0
 10 11  1  0  0  0  0
 11 12  1  0  0  0  0
 12 13  1  0  0  0  0
 13 14  2  0  0  0  0
 14 15  4  0  0  0  0
 15 16  2  0  0  0  0
 16 17  4  0  0  0  0
 13 18  4  0  0  0  0
 17 18  4  0  0  0  0
 18 19  4  0  0  0  0
 19 20  2  0  0  0  0
 20 21  4  0  0  0  0
 17 22  4  0  0  0  0
 21 22  2  0  0  0  0
 12 23  1  0  0  0  0
 23 24  1  0  0  0  0
 24 25  1  0  0  0  0
 25 26  4  0  0  0  0
 26 27  4  0  0  0  0
 27 28  4  0  0  0  0
 28 29  1  0  0  0  0
 29 30  1  0  0  0  0
 29 31  1  0  0  0  0
 28 32  4  0  0  0  0
 25 33  4  0  0  0  0
 32 33  4  0  0  0  0
 24 34  2  0  0  0  0
 23 35  1  0  0  0  0
 35 36  1  0  0  0  0
 36 37  1  0  0  0  0
 36 38  2  0  0  0  0
 11 39  1  0  0  0  0
 35 39  1  0  0  0  0
 39 40  4  0  0  0  0
 40 41  1  0  0  0  0
 41 42  4  0  0  0  0
 42 43  4  0  0  0  0
 43 44  4  0  0  0  0
 44 45  1  0  0  0  0
 45 46  1  0  0  0  0
 45 47  1  0  0  0  0
 44 48  4  0  0  0  0
 41 49  4  0  0  0  0
 48 49  4  0  0  0  0
 40 50  2  0  0  0  0
  1 51  1  0  0  0  0
  2 52  1  0  0  0  0
  3 53  1  0  0  0  0
  4 54  1  0  0  0  0
  7 55  1  0  0  0  0
  8 56  1  0  0  0  0
  9 57  1  0  0  0  0
 11 58  1  0  0  0  0
 12 59  1  0  0  0  0
 14 60  1  0  0  0  0
 15 61  1  0  0  0  0
 16 62  1  0  0  0  0
 19 63  1  0  0  0  0
 20 64  1  0  0  0  0
 21 65  1  0  0  0  0
 22 66  1  0  0  0  0
 26 67  1  0  0  0  0
 27 68  1  0  0  0  0
 29 69  1  0  0  0  0
 30 70  1  0  0  0  0
 30 71  1  0  0  0  0
 30 72  1  0  0  0  0
 31 73  1  0  0  0  0
 31 74  1  0  0  0  0
 31 75  1  0  0  0  0
 32 76  1  0  0  0  0
 33 77  1  0  0  0  0
 35 78  1  0  0  0  0
 37 79  1  0  0  0  0
 42 80  1  0  0  0  0
 43 81  1  0  0  0  0
 45 82  1  0  0  0  0
 46 83  1  0  0  0  0
 46 84  1  0  0  0  0
 46 85  1  0  0  0  0
 47 86  1  0  0  0  0
 47 87  1  0  0  0  0
 47 88  1  0  0  0  0
 48 89  1  0  0  0  0
 49 90  1  0  0  0  0
M  END
