90

C     -0.683377   -3.472342    2.555509
C     -0.747139   -4.165678    3.768150
C      0.409726   -4.692230    4.362187
C      0.355239   -5.401825    5.575186
C      1.520651   -5.906685    6.154648
C      2.748739   -5.712289    5.529459
C      2.815984   -5.010353    4.324374
C      1.653319   -4.496459    3.726948
C      1.702891   -3.795729    2.508869
C      0.543655   -3.284692    1.898365
C      0.688051   -2.523196    0.579220
C     -0.611888   -2.371968   -0.261009
C     -0.324283   -2.512570   -1.758776
C     -0.869681   -3.600061   -2.463859
C     -0.618548   -3.788480   -3.833739
C     -1.159353   -4.878531   -4.534800
C     -0.892466   -5.055188   -5.894400
C     -0.088131   -4.141578   -6.569798
C      0.453605   -3.050425   -5.888351
C      0.197532   -2.861890   -4.520003
C      0.732358   -1.770228   -3.820601
C      0.474112   -1.597353   -2.458954
N     -1.112926   -1.025837    0.070270
C     -2.336905   -0.622958   -0.429134
C     -2.670347    0.810296   -0.679789
C     -2.385540    1.883093    0.163863
C     -2.759050    3.189833   -0.187272
C     -3.453218    3.452107   -1.376782
C     -3.881582    4.855821   -1.768364
C     -2.667491    5.729200   -2.096502
C     -4.759137    5.508392   -0.695606
C     -3.750343    2.375113   -2.218738
C     -3.365674    1.074547   -1.874025
O     -3.158877   -1.460667   -0.805530
C     -0.133370   -0.297054    0.866002
C     -0.616520   -0.185421    2.357288
O      0.356842   -0.329522    3.282043
O     -1.752926    0.056461    2.738472
N      1.067607   -1.125678    0.816494
C      2.379165   -0.705497    0.776062
C      2.629559    0.748317    0.721514
C      2.922708    1.322171   -0.516194
C      3.076741    2.704849   -0.617232
C      2.947112    3.529297    0.517491
C      3.076451    5.034864    0.342693
C      3.625063    5.772549    1.566753
C      1.727774    5.631400   -0.071995
C      2.679695    2.929144    1.756588
C      2.533212    1.542087    1.863714
O      3.340968   -1.461634    0.675052
H     -1.615148   -3.078484    2.157653
H     -1.716515   -4.290631    4.251407
H     -0.595710   -5.564516    6.075586
H      1.469849   -6.452970    7.093946
H      3.657630   -6.105252    5.979131
H      3.787073   -4.869639    3.851771
H      2.668153   -3.639749    2.022991
H      1.466019   -3.030724   -0.004903
H     -1.377043   -3.111098    0.000191
H     -1.510235   -4.308761   -1.940377
H     -1.789990   -5.600883   -4.023156
H     -1.314708   -5.905191   -6.423112
H      0.119451   -4.277768   -7.628358
H      1.078165   -2.343997   -6.432580
H      1.358744   -1.041914   -4.332138
H      0.904180   -0.737110   -1.955274
H     -1.906568    1.752597    1.122353
H     -2.519779    4.001254    0.498096
H     -4.491485    4.791169   -2.680353
H     -2.982300    6.720336   -2.440494
H     -2.062720    5.277610   -2.888970
H     -2.020257    5.868891   -1.223254
H     -4.208700    5.671785    0.238571
H     -5.124064    6.483905   -1.041222
H     -5.629389    4.883714   -0.469635
H     -4.296596    2.531343   -3.148505
H     -3.619140    0.255443   -2.547922
H      0.038737    0.701126    0.464077
H     -0.112742   -0.363312    4.141174
H      3.027855    0.693554   -1.397706
H      3.290975    3.142103   -1.592235
H      3.793944    5.211412   -0.472350
H      3.841354    6.819721    1.317045
H      2.902193    5.778226    2.391875
H      4.553494    5.311015    1.925972
H      1.359932    5.177782   -0.999918
H      0.963632    5.470782    0.700484
H      1.811804    6.710786   -0.240192
H      2.579307    3.528903    2.658166
H      2.360611    1.093025    2.836401
