
  xtb     03162223193D
 xtb: 6.3.3 (4ae9cef)
 90 96  0     0  0            999 V2000
   -0.9610   -3.3644    2.3769 C   0  0  0  0  0  0  0  0  0  0  0  0
   -1.0915   -3.8256    3.6576 C   0  0  0  0  0  0  0  0  0  0  0  0
    0.0375   -4.1598    4.4316 C   0  0  0  0  0  0  0  0  0  0  0  0
   -0.0677   -4.6351    5.7557 C   0  0  0  0  0  0  0  0  0  0  0  0
    1.0518   -4.9484    6.4737 C   0  0  0  0  0  0  0  0  0  0  0  0
    2.3265   -4.8004    5.9022 C   0  0  0  0  0  0  0  0  0  0  0  0
    2.4617   -4.3421    4.6223 C   0  0  0  0  0  0  0  0  0  0  0  0
    1.3255   -4.0102    3.8536 C   0  0  0  0  0  0  0  0  0  0  0  0
    1.4281   -3.5345    2.5329 C   0  0  0  0  0  0  0  0  0  0  0  0
    0.3134   -3.2151    1.7969 C   0  0  0  0  0  0  0  0  0  0  0  0
    0.5291   -2.6383    0.4173 C   0  0  0  0  0  0  0  0  0  0  0  0
   -0.7141   -2.5446   -0.4924 C   0  0  0  0  0  0  0  0  0  0  0  0
   -0.3374   -2.7269   -1.9428 C   0  0  0  0  0  0  0  0  0  0  0  0
   -0.5708   -3.9202   -2.5730 C   0  0  0  0  0  0  0  0  0  0  0  0
   -0.1970   -4.1222   -3.9162 C   0  0  0  0  0  0  0  0  0  0  0  0
   -0.4344   -5.3418   -4.5841 C   0  0  0  0  0  0  0  0  0  0  0  0
   -0.0630   -5.5064   -5.8888 C   0  0  0  0  0  0  0  0  0  0  0  0
    0.5636   -4.4611   -6.5859 C   0  0  0  0  0  0  0  0  0  0  0  0
    0.8068   -3.2672   -5.9668 C   0  0  0  0  0  0  0  0  0  0  0  0
    0.4344   -3.0653   -4.6219 C   0  0  0  0  0  0  0  0  0  0  0  0
    0.6627   -1.8464   -3.9514 C   0  0  0  0  0  0  0  0  0  0  0  0
    0.2874   -1.6817   -2.6497 C   0  0  0  0  0  0  0  0  0  0  0  0
   -1.1996   -1.1924   -0.2374 N   0  0  0  0  0  0  0  0  0  0  0  0
   -2.3387   -0.7045   -0.7969 C   0  0  0  0  0  0  0  0  0  0  0  0
   -2.5080    0.7716   -0.6168 C   0  0  0  0  0  0  0  0  0  0  0  0
   -3.4389    1.2947    0.2685 C   0  0  0  0  0  0  0  0  0  0  0  0
   -3.5592    2.6642    0.4163 C   0  0  0  0  0  0  0  0  0  0  0  0
   -2.7709    3.5394   -0.3225 C   0  0  0  0  0  0  0  0  0  0  0  0
   -2.8919    5.0340   -0.1545 C   0  0  0  0  0  0  0  0  0  0  0  0
   -2.4954    5.4475    1.2645 C   0  0  0  0  0  0  0  0  0  0  0  0
   -4.3071    5.5114   -0.4851 C   0  0  0  0  0  0  0  0  0  0  0  0
   -1.8602    3.0044   -1.2249 C   0  0  0  0  0  0  0  0  0  0  0  0
   -1.7238    1.6369   -1.3717 C   0  0  0  0  0  0  0  0  0  0  0  0
   -3.1037   -1.4095   -1.4167 O   0  0  0  0  0  0  0  0  0  0  0  0
   -0.2824   -0.4726    0.6174 C   0  0  0  0  0  0  0  0  0  0  0  0
   -0.8290   -0.4063    2.0584 C   0  0  0  0  0  0  0  0  0  0  0  0
    0.1478   -0.2725    2.9524 O   0  0  0  0  0  0  0  0  0  0  0  0
   -1.9925   -0.4271    2.3398 O   0  0  0  0  0  0  0  0  0  0  0  0
    0.9287   -1.2365    0.5447 N   0  0  0  0  0  0  0  0  0  0  0  0
    2.1346   -0.8025    0.0671 C   0  0  0  0  0  0  0  0  0  0  0  0
    2.2600    0.6748   -0.0888 C   0  0  0  0  0  0  0  0  0  0  0  0
    2.6263    1.1784   -1.3315 C   0  0  0  0  0  0  0  0  0  0  0  0
    2.7106    2.5440   -1.5292 C   0  0  0  0  0  0  0  0  0  0  0  0
    2.4572    3.4357   -0.4939 C   0  0  0  0  0  0  0  0  0  0  0  0
    2.5642    4.9228   -0.7227 C   0  0  0  0  0  0  0  0  0  0  0  0
    3.7644    5.4895    0.0396 C   0  0  0  0  0  0  0  0  0  0  0  0
    1.2773    5.6447   -0.3196 C   0  0  0  0  0  0  0  0  0  0  0  0
    2.1309    2.9205    0.7559 C   0  0  0  0  0  0  0  0  0  0  0  0
    2.0264    1.5580    0.9602 C   0  0  0  0  0  0  0  0  0  0  0  0
    3.0219   -1.5800   -0.2122 O   0  0  0  0  0  0  0  0  0  0  0  0
   -1.8494   -3.1075    1.8213 H   0  0  0  0  0  0  0  0  0  0  0  0
   -2.0737   -3.9359    4.0943 H   0  0  0  0  0  0  0  0  0  0  0  0
   -1.0510   -4.7484    6.1897 H   0  0  0  0  0  0  0  0  0  0  0  0
    0.9654   -5.3136    7.4866 H   0  0  0  0  0  0  0  0  0  0  0  0
    3.1993   -5.0541    6.4858 H   0  0  0  0  0  0  0  0  0  0  0  0
    3.4390   -4.2265    4.1767 H   0  0  0  0  0  0  0  0  0  0  0  0
    2.4089   -3.4125    2.0957 H   0  0  0  0  0  0  0  0  0  0  0  0
    1.3482   -3.1693   -0.0788 H   0  0  0  0  0  0  0  0  0  0  0  0
   -1.4783   -3.2816   -0.2321 H   0  0  0  0  0  0  0  0  0  0  0  0
   -1.0542   -4.7283   -2.0423 H   0  0  0  0  0  0  0  0  0  0  0  0
   -0.9178   -6.1430   -4.0438 H   0  0  0  0  0  0  0  0  0  0  0  0
   -0.2488   -6.4425   -6.3949 H   0  0  0  0  0  0  0  0  0  0  0  0
    0.8505   -4.6096   -7.6167 H   0  0  0  0  0  0  0  0  0  0  0  0
    1.2879   -2.4591   -6.4995 H   0  0  0  0  0  0  0  0  0  0  0  0
    1.1400   -1.0392   -4.4890 H   0  0  0  0  0  0  0  0  0  0  0  0
    0.4652   -0.7379   -2.1543 H   0  0  0  0  0  0  0  0  0  0  0  0
   -4.0530    0.6251    0.8497 H   0  0  0  0  0  0  0  0  0  0  0  0
   -4.2813    3.0529    1.1184 H   0  0  0  0  0  0  0  0  0  0  0  0
   -2.1993    5.5139   -0.8553 H   0  0  0  0  0  0  0  0  0  0  0  0
   -2.5204    6.5305    1.3618 H   0  0  0  0  0  0  0  0  0  0  0  0
   -1.4891    5.1020    1.4915 H   0  0  0  0  0  0  0  0  0  0  0  0
   -3.1775    5.0205    1.9953 H   0  0  0  0  0  0  0  0  0  0  0  0
   -5.0284    5.1046    0.2188 H   0  0  0  0  0  0  0  0  0  0  0  0
   -4.3572    6.5970   -0.4384 H   0  0  0  0  0  0  0  0  0  0  0  0
   -4.5887    5.1939   -1.4866 H   0  0  0  0  0  0  0  0  0  0  0  0
   -1.2491    3.6633   -1.8261 H   0  0  0  0  0  0  0  0  0  0  0  0
   -1.0165    1.2400   -2.0869 H   0  0  0  0  0  0  0  0  0  0  0  0
   -0.1365    0.5654    0.2875 H   0  0  0  0  0  0  0  0  0  0  0  0
   -0.2111   -0.2498    3.8549 H   0  0  0  0  0  0  0  0  0  0  0  0
    2.8359    0.4917   -2.1385 H   0  0  0  0  0  0  0  0  0  0  0  0
    2.9812    2.9232   -2.5044 H   0  0  0  0  0  0  0  0  0  0  0  0
    2.7290    5.0915   -1.7927 H   0  0  0  0  0  0  0  0  0  0  0  0
    3.8631    6.5554   -0.1528 H   0  0  0  0  0  0  0  0  0  0  0  0
    3.6438    5.3419    1.1100 H   0  0  0  0  0  0  0  0  0  0  0  0
    4.6806    4.9938   -0.2733 H   0  0  0  0  0  0  0  0  0  0  0  0
    0.4201    5.2019   -0.8211 H   0  0  0  0  0  0  0  0  0  0  0  0
    1.1147    5.5834    0.7533 H   0  0  0  0  0  0  0  0  0  0  0  0
    1.3356    6.6955   -0.5942 H   0  0  0  0  0  0  0  0  0  0  0  0
    1.9525    3.5889    1.5848 H   0  0  0  0  0  0  0  0  0  0  0  0
    1.7791    1.1713    1.9374 H   0  0  0  0  0  0  0  0  0  0  0  0
  1  2  2  0  0  0  0
  2  3  4  0  0  0  0
  3  4  4  0  0  0  0
  4  5  2  0  0  0  0
  5  6  4  0  0  0  0
  6  7  2  0  0  0  0
  3  8  4  0  0  0  0
  7  8  4  0  0  0  0
  8  9  4  0  0  0  0
  1 10  4  0  0  0  0
  9 10  2  0  0  0  0
 10 11  1  0  0  0  0
 11 12  1  0  0  0  0
 12 13  1  0  0  0  0
 13 14  2  0  0  0  0
 14 15  4  0  0  0  0
 15 16  4  0  0  0  0
 16 17  2  0  0  0  0
 17 18  4  0  0  0  0
 18 19  2  0  0  0  0
 15 20  4  0  0  0  0
 19 20  4  0  0  0  0
 20 21  4  0  0  0  0
 13 22  4  0  0  0  0
 21 22  2  0  0  0  0
 12 23  1  0  0  0  0
 23 24  1  0  0  0  0
 24 25  1  0  0  0  0
 25 26  4  0  0  0  0
 26 27  4  0  0  0  0
 27 28  4  0  0  0  0
 28 29  1  0  0  0  0
 29 30  1  0  0  0  0
 29 31  1  0  0  0  0
 28 32  4  0  0  0  0
 25 33  4  0  0  0  0
 32 33  4  0  0  0  0
 24 34  2  0  0  0  0
 23 35  1  0  0  0  0
 35 36  1  0  0  0  0
 36 37  1  0  0  0  0
 36 38  2  0  0  0  0
 11 39  1  0  0  0  0
 35 39  1  0  0  0  0
 39 40  1  0  0  0  0
 40 41  1  0  0  0  0
 41 42  4  0  0  0  0
 42 43  4  0  0  0  0
 43 44  4  0  0  0  0
 44 45  1  0  0  0  0
 45 46  1  0  0  0  0
 45 47  1  0  0  0  0
 44 48  4  0  0  0  0
 41 49  4  0  0  0  0
 48 49  4  0  0  0  0
 40 50  2  0  0  0  0
  1 51  1  0  0  0  0
  2 52  1  0  0  0  0
  4 53  1  0  0  0  0
  5 54  1  0  0  0  0
  6 55  1  0  0  0  0
  7 56  1  0  0  0  0
  9 57  1  0  0  0  0
 11 58  1  0  0  0  0
 12 59  1  0  0  0  0
 14 60  1  0  0  0  0
 16 61  1  0  0  0  0
 17 62  1  0  0  0  0
 18 63  1  0  0  0  0
 19 64  1  0  0  0  0
 21 65  1  0  0  0  0
 22 66  1  0  0  0  0
 26 67  1  0  0  0  0
 27 68  1  0  0  0  0
 29 69  1  0  0  0  0
 30 70  1  0  0  0  0
 30 71  1  0  0  0  0
 30 72  1  0  0  0  0
 31 73  1  0  0  0  0
 31 74  1  0  0  0  0
 31 75  1  0  0  0  0
 32 76  1  0  0  0  0
 33 77  1  0  0  0  0
 35 78  1  0  0  0  0
 37 79  1  0  0  0  0
 42 80  1  0  0  0  0
 43 81  1  0  0  0  0
 45 82  1  0  0  0  0
 46 83  1  0  0  0  0
 46 84  1  0  0  0  0
 46 85  1  0  0  0  0
 47 86  1  0  0  0  0
 47 87  1  0  0  0  0
 47 88  1  0  0  0  0
 48 89  1  0  0  0  0
 49 90  1  0  0  0  0
M  END
