
  xtb     03172201423D
 xtb: 6.3.3 (4ae9cef)
 68 74  0     0  0            999 V2000
   -2.7348   -1.0684   -0.6992 C   0  0  0  0  0  0  0  0  0  0  0  0
   -3.7404   -1.9863   -0.7853 C   0  0  0  0  0  0  0  0  0  0  0  0
   -3.8406   -3.0391    0.1482 C   0  0  0  0  0  0  0  0  0  0  0  0
   -4.8641   -4.0066    0.0840 C   0  0  0  0  0  0  0  0  0  0  0  0
   -4.9282   -5.0157    1.0039 C   0  0  0  0  0  0  0  0  0  0  0  0
   -3.9721   -5.1033    2.0280 C   0  0  0  0  0  0  0  0  0  0  0  0
   -2.9678   -4.1806    2.1166 C   0  0  0  0  0  0  0  0  0  0  0  0
   -2.8750   -3.1262    1.1844 C   0  0  0  0  0  0  0  0  0  0  0  0
   -1.8545   -2.1570    1.2526 C   0  0  0  0  0  0  0  0  0  0  0  0
   -1.7832   -1.1426    0.3370 C   0  0  0  0  0  0  0  0  0  0  0  0
   -0.6450   -0.1628    0.3796 C   0  0  0  0  0  0  0  0  0  0  0  0
    0.3618   -0.4429   -0.7518 C   0  0  0  0  0  0  0  0  0  0  0  0
    1.4382   -1.3948   -0.3039 C   0  0  0  0  0  0  0  0  0  0  0  0
    2.4639   -0.9830    0.5055 C   0  0  0  0  0  0  0  0  0  0  0  0
    3.4438   -1.8934    0.9475 C   0  0  0  0  0  0  0  0  0  0  0  0
    4.5198   -1.4876    1.7648 C   0  0  0  0  0  0  0  0  0  0  0  0
    5.4582   -2.3903    2.1793 C   0  0  0  0  0  0  0  0  0  0  0  0
    5.3629   -3.7386    1.7985 C   0  0  0  0  0  0  0  0  0  0  0  0
    4.3304   -4.1626    1.0093 C   0  0  0  0  0  0  0  0  0  0  0  0
    3.3465   -3.2561    0.5632 C   0  0  0  0  0  0  0  0  0  0  0  0
    2.2680   -3.6542   -0.2535 C   0  0  0  0  0  0  0  0  0  0  0  0
    1.3404   -2.7476   -0.6790 C   0  0  0  0  0  0  0  0  0  0  0  0
    0.8407    0.8874   -1.1070 N   0  0  0  0  0  0  0  0  0  0  0  0
    1.9218    1.0345   -1.9165 C   0  0  0  0  0  0  0  0  0  0  0  0
    2.4449    2.3993   -2.1188 C   0  0  0  0  0  0  0  0  0  0  0  0
    3.6219    2.7421   -2.7431 C   0  0  0  0  0  0  0  0  0  0  0  0
    3.7337    4.1391   -2.6507 C   0  0  0  0  0  0  0  0  0  0  0  0
    2.6115    4.5636   -1.9757 C   0  0  0  0  0  0  0  0  0  0  0  0
    2.2036    5.8535   -1.6005 C   0  0  0  0  0  0  0  0  0  0  0  0
    1.8688    6.9047   -1.2884 N   0  0  0  0  0  0  0  0  0  0  0  0
    1.8267    3.5063   -1.6568 O   0  0  0  0  0  0  0  0  0  0  0  0
    2.4619    0.0856   -2.4490 O   0  0  0  0  0  0  0  0  0  0  0  0
    0.0351    1.9274   -0.5212 C   0  0  0  0  0  0  0  0  0  0  0  0
    0.8536    2.6962    0.5668 C   0  0  0  0  0  0  0  0  0  0  0  0
    0.4349    3.9222    0.8514 O   0  0  0  0  0  0  0  0  0  0  0  0
    1.7696    2.1836    1.1364 O   0  0  0  0  0  0  0  0  0  0  0  0
   -1.0503    1.2165    0.1186 N   0  0  0  0  0  0  0  0  0  0  0  0
   -2.1668    1.7181    0.7122 C   0  0  0  0  0  0  0  0  0  0  0  0
   -2.6619    3.0511    0.3052 C   0  0  0  0  0  0  0  0  0  0  0  0
   -3.8660    3.5970    0.6815 C   0  0  0  0  0  0  0  0  0  0  0  0
   -3.9787    4.8310    0.0175 C   0  0  0  0  0  0  0  0  0  0  0  0
   -2.8314    4.9676   -0.7271 C   0  0  0  0  0  0  0  0  0  0  0  0
   -2.4325    5.9911   -1.6023 C   0  0  0  0  0  0  0  0  0  0  0  0
   -2.1284    6.8235   -2.3289 N   0  0  0  0  0  0  0  0  0  0  0  0
   -2.0241    3.8871   -0.5506 O   0  0  0  0  0  0  0  0  0  0  0  0
   -2.8208    1.0693    1.5052 O   0  0  0  0  0  0  0  0  0  0  0  0
   -2.6679   -0.2672   -1.4224 H   0  0  0  0  0  0  0  0  0  0  0  0
   -4.4748   -1.9205   -1.5755 H   0  0  0  0  0  0  0  0  0  0  0  0
   -5.5978   -3.9353   -0.7064 H   0  0  0  0  0  0  0  0  0  0  0  0
   -5.7153   -5.7535    0.9500 H   0  0  0  0  0  0  0  0  0  0  0  0
   -4.0386   -5.9075    2.7460 H   0  0  0  0  0  0  0  0  0  0  0  0
   -2.2296   -4.2427    2.9031 H   0  0  0  0  0  0  0  0  0  0  0  0
   -1.1234   -2.2259    2.0453 H   0  0  0  0  0  0  0  0  0  0  0  0
   -0.1381   -0.2181    1.3522 H   0  0  0  0  0  0  0  0  0  0  0  0
   -0.1573   -0.8717   -1.6206 H   0  0  0  0  0  0  0  0  0  0  0  0
    2.5451    0.0500    0.8102 H   0  0  0  0  0  0  0  0  0  0  0  0
    4.5858   -0.4484    2.0530 H   0  0  0  0  0  0  0  0  0  0  0  0
    6.2817   -2.0742    2.8031 H   0  0  0  0  0  0  0  0  0  0  0  0
    6.1145   -4.4377    2.1352 H   0  0  0  0  0  0  0  0  0  0  0  0
    4.2534   -5.1993    0.7132 H   0  0  0  0  0  0  0  0  0  0  0  0
    2.1902   -4.6922   -0.5438 H   0  0  0  0  0  0  0  0  0  0  0  0
    0.5197   -3.0605   -1.3084 H   0  0  0  0  0  0  0  0  0  0  0  0
    4.3056    2.0559   -3.1981 H   0  0  0  0  0  0  0  0  0  0  0  0
    4.5233    4.7600   -3.0220 H   0  0  0  0  0  0  0  0  0  0  0  0
   -0.3401    2.6187   -1.2900 H   0  0  0  0  0  0  0  0  0  0  0  0
   -0.2754    4.2392    0.2706 H   0  0  0  0  0  0  0  0  0  0  0  0
   -4.5691    3.1426    1.3485 H   0  0  0  0  0  0  0  0  0  0  0  0
   -4.7878    5.5305    0.0686 H   0  0  0  0  0  0  0  0  0  0  0  0
  1  2  2  0  0  0  0
  2  3  4  0  0  0  0
  3  4  4  0  0  0  0
  4  5  2  0  0  0  0
  5  6  4  0  0  0  0
  6  7  2  0  0  0  0
  3  8  4  0  0  0  0
  7  8  4  0  0  0  0
  8  9  4  0  0  0  0
  1 10  4  0  0  0  0
  9 10  2  0  0  0  0
 10 11  1  0  0  0  0
 11 12  1  0  0  0  0
 12 13  1  0  0  0  0
 13 14  2  0  0  0  0
 14 15  4  0  0  0  0
 15 16  4  0  0  0  0
 16 17  2  0  0  0  0
 17 18  4  0  0  0  0
 18 19  2  0  0  0  0
 15 20  4  0  0  0  0
 19 20  4  0  0  0  0
 20 21  4  0  0  0  0
 13 22  4  0  0  0  0
 21 22  2  0  0  0  0
 12 23  1  0  0  0  0
 23 24  4  0  0  0  0
 24 25  1  0  0  0  0
 25 26  2  0  0  0  0
 26 27  4  0  0  0  0
 27 28  4  0  0  0  0
 28 29  1  0  0  0  0
 29 30  3  0  0  0  0
 25 31  1  0  0  0  0
 28 31  1  0  0  0  0
 24 32  2  0  0  0  0
 23 33  1  0  0  0  0
 33 34  1  0  0  0  0
 34 35  1  0  0  0  0
 34 36  2  0  0  0  0
 11 37  1  0  0  0  0
 33 37  1  0  0  0  0
 37 38  4  0  0  0  0
 38 39  1  0  0  0  0
 39 40  2  0  0  0  0
 40 41  4  0  0  0  0
 41 42  4  0  0  0  0
 42 43  1  0  0  0  0
 43 44  3  0  0  0  0
 39 45  1  0  0  0  0
 42 45  1  0  0  0  0
 38 46  2  0  0  0  0
  1 47  1  0  0  0  0
  2 48  1  0  0  0  0
  4 49  1  0  0  0  0
  5 50  1  0  0  0  0
  6 51  1  0  0  0  0
  7 52  1  0  0  0  0
  9 53  1  0  0  0  0
 11 54  1  0  0  0  0
 12 55  1  0  0  0  0
 14 56  1  0  0  0  0
 16 57  1  0  0  0  0
 17 58  1  0  0  0  0
 18 59  1  0  0  0  0
 19 60  1  0  0  0  0
 21 61  1  0  0  0  0
 22 62  1  0  0  0  0
 26 63  1  0  0  0  0
 27 64  1  0  0  0  0
 33 65  1  0  0  0  0
 35 66  1  0  0  0  0
 40 67  1  0  0  0  0
 41 68  1  0  0  0  0
M  END
