72

C     -2.013998    2.838579    0.198614
C     -2.634864    3.641427    1.160015
C     -2.590241    3.303214    2.521700
C     -3.186055    4.110605    3.501838
C     -3.129085    3.755592    4.851768
C     -2.481365    2.586337    5.235619
C     -1.885118    1.771841    4.274723
C     -1.930809    2.118970    2.912199
C     -1.318447    1.317053    1.933808
C     -1.336347    1.670442    0.572250
C     -0.642781    0.823293   -0.486678
C      0.851176    0.567956   -0.127427
C      1.816074    1.291619   -1.056786
C      2.488688    2.432222   -0.577391
C      3.337791    3.186654   -1.401965
C      3.994814    4.329147   -0.921970
C      4.823046    5.079194   -1.756930
C      5.006293    4.694340   -3.081329
C      4.367186    3.555842   -3.572030
C      3.529200    2.793543   -2.743881
C      2.874659    1.650227   -3.217557
C      2.031455    0.910900   -2.383944
N      0.995212   -0.890429   -0.098758
C      1.974736   -1.466973    0.686769
C      1.965865   -2.931011    0.869162
C      1.296371   -3.525158    1.946010
Br     0.340066   -2.521746    3.236341
C      1.334833   -4.912690    2.101478
C      2.067311   -5.695747    1.210483
C      2.764862   -5.098477    0.161451
C      2.722941   -3.713599   -0.005122
O      2.841327   -0.829815    1.279499
C     -0.198751   -1.541655   -0.628654
C      0.145213   -2.064826   -2.061513
O     -0.612777   -1.544659   -3.054053
O      1.035283   -2.849807   -2.362847
N     -1.233796   -0.512961   -0.605413
C     -2.556374   -0.691203   -0.980123
C     -3.123923   -2.055817   -0.948809
C     -3.397225   -2.663615   -2.182122
C     -3.941849   -3.945504   -2.227193
C     -4.249943   -4.610659   -1.044170
C     -4.017709   -3.992859    0.187703
C     -3.467137   -2.707092    0.238780
Br    -3.279224   -1.899663    1.940053
O     -3.278826    0.209851   -1.400652
H     -2.079489    3.125339   -0.852351
H     -3.153118    4.540294    0.833825
H     -3.691042    5.030886    3.223960
H     -3.593605    4.389546    5.603518
H     -2.433482    2.313560    6.283851
H     -1.384287    0.860915    4.594144
H     -0.813127    0.407490    2.244058
H     -0.741471    1.305768   -1.466756
H      1.075392    0.912421    0.888335
H      2.346094    2.740512    0.458408
H      3.858888    4.643301    0.109655
H      5.322060    5.968817   -1.378539
H      5.647467    5.279761   -3.731318
H      4.521757    3.271339   -4.611704
H      3.013885    1.329653   -4.246401
H      1.543361    0.040494   -2.800808
H      0.814813   -5.391556    2.926818
H      2.111058   -6.769670    1.344094
H      3.350865   -5.711934   -0.518898
H      3.281095   -3.252542   -0.816518
H     -0.509661   -2.399505   -0.027768
H     -0.247496   -1.938643   -3.877679
H     -3.199105   -2.130605   -3.108536
H     -4.149121   -4.416019   -3.186169
H     -4.693562   -5.603524   -1.077794
H     -4.295927   -4.518980    1.097626
