60

C      2.044756   -3.192873    1.038464
C      2.779814   -3.811867    2.049876
C      2.738351   -3.314092    3.350436
C      1.963930   -2.193684    3.641152
C      1.228810   -1.572711    2.631532
C      1.258087   -2.065442    1.315622
C      0.460647   -1.408318    0.202872
C     -1.067346   -1.460133    0.435836
C     -1.707259   -2.521463   -0.446326
C     -1.816628   -2.360382   -1.837907
C     -2.393947   -3.358116   -2.625741
C     -2.863692   -4.530070   -2.037383
C     -2.754202   -4.707073   -0.661104
C     -2.177578   -3.710991    0.130093
N     -1.526170   -0.110793    0.132344
C     -2.853089    0.256105    0.303944
C     -3.276453    1.574793   -0.138113
C     -3.968850    2.514041    0.600228
C     -4.262194    3.686482   -0.153837
C     -3.836967    3.583823   -1.461480
C     -3.970156    4.588343   -2.554122
S     -3.083526    2.077766   -1.760692
O     -3.640502   -0.500346    0.872870
C     -0.409862    0.789231   -0.104575
C     -0.338290    1.914816    0.956088
O     -0.089657    3.129718    0.416643
O     -0.435502    1.790292    2.169674
N      0.805721    0.008443    0.083134
C      1.821301    0.324344   -0.817349
C      2.914081    1.099556   -0.246571
C      3.170905    1.430146    1.071863
C      4.363760    2.195206    1.221556
C      4.990041    2.427260    0.015266
C      6.263140    3.162491   -0.233244
S      4.123035    1.732698   -1.282793
O      1.741583   -0.032272   -1.992165
H      2.093549   -3.600744    0.030773
H      3.385708   -4.684335    1.824809
H      3.310848   -3.800018    4.135579
H      1.930616   -1.805202    4.655877
H      0.632099   -0.696945    2.882444
H      0.722679   -1.898464   -0.743741
H     -1.324908   -1.648983    1.485376
H     -1.452971   -1.456179   -2.322662
H     -2.478007   -3.219873   -3.700199
H     -3.317392   -5.303140   -2.651940
H     -3.122464   -5.620313   -0.199231
H     -2.110868   -3.867919    1.203697
H     -4.242273    2.363842    1.638936
H     -4.774016    4.553835    0.242992
H     -3.145191    5.307137   -2.508651
H     -4.910489    5.139936   -2.456493
H     -3.962530    4.119375   -3.542417
H     -0.464544    1.203889   -1.115167
H     -0.052434    3.743035    1.182876
H      2.546774    1.124694    1.902258
H      4.747689    2.548254    2.172204
H      6.342829    3.515215   -1.263721
H      7.114732    2.512178   -0.027696
H      6.334467    4.035795    0.419968
