66

C      3.518148   -2.967219    1.473827
C      3.327592   -2.474454    2.761330
C      2.473257   -1.402971    2.962046
C      1.810578   -0.826385    1.875582
C      1.980187   -1.295347    0.549579
C      2.858825   -2.398113    0.373034
C      3.070219   -2.937946   -0.902353
C      2.424017   -2.416892   -2.014803
C      1.559834   -1.341447   -1.864852
C      1.325245   -0.754194   -0.602370
C      0.313811    0.393560   -0.581195
C     -1.023294   -0.033705    0.106498
C     -2.099572   -0.429791   -0.906992
C     -2.977150    0.550544   -1.405251
C     -3.919130    0.253128   -2.383845
C     -4.001156   -1.033517   -2.896117
C     -3.157341   -2.046379   -2.425684
C     -2.203383   -1.768234   -1.409661
C     -1.416546   -2.861148   -0.965376
C     -1.533434   -4.139920   -1.518303
C     -2.453556   -4.375976   -2.527031
C     -3.266573   -3.336464   -2.970273
N     -1.374375    1.097041    0.980889
C     -2.225655    0.888096    2.064428
C     -2.480148    1.976184    2.996081
C     -3.020192    1.946949    4.272027
C     -3.051794    3.282095    4.739894
C     -2.561289    4.053549    3.714862
O     -2.198001    3.273181    2.667205
O     -2.722423   -0.222083    2.256812
C     -0.352911    2.133921    0.940320
C     -0.844111    3.461007    0.265732
O     -0.093077    4.549401    0.599746
O     -1.742936    3.550703   -0.560832
N      0.736744    1.591812    0.153063
C      1.922463    2.303211    0.097015
C      2.897284    2.028093   -0.934874
C      4.266371    2.230508   -0.946049
C      4.724542    1.864258   -2.233521
C      3.609234    1.483633   -2.939906
O      2.495623    1.596424   -2.170214
O      2.097393    3.198331    0.933878
H      4.188477   -3.813177    1.336990
H      3.842103   -2.931494    3.601633
H      2.312798   -1.017393    3.966494
H      1.146445   -0.000893    2.099923
H      3.739769   -3.783684   -1.038193
H      2.587146   -2.850553   -2.997667
H      1.057264   -0.955820   -2.752952
H      0.115197    0.742930   -1.602041
H     -0.865390   -0.873985    0.790787
H     -2.944239    1.571434   -1.036247
H     -4.584446    1.031516   -2.746624
H     -4.741155   -1.241285   -3.666795
H     -0.689029   -2.748712   -0.167321
H     -0.902450   -4.945111   -1.153117
H     -2.545268   -5.366191   -2.960734
H     -3.994216   -3.542569   -3.752342
H     -3.349104    1.056131    4.791067
H     -3.411459    3.640277    5.694217
H     -2.415685    5.117419    3.578508
H     -0.001245    2.346087    1.956475
H      0.724037    4.309769    1.101881
H      4.852222    2.600915   -0.114789
H      5.738769    1.879810   -2.605542
H      3.446137    1.131133   -3.947958
