66

O     -1.016391    2.809251    0.977111
C     -1.394151    1.704482    0.596205
C     -2.792580    1.318953    0.872686
C     -3.219007    1.259306    2.201115
C     -4.533259    0.889844    2.485915
C     -5.416630    0.585442    1.449137
C     -5.007386    0.684769    0.113634
C     -5.945757    0.341552   -1.007056
C     -3.688119    1.063420   -0.168767
N     -0.552069    0.787779   -0.006727
C      0.862419    1.109488   -0.118491
C      1.088128    1.778645   -1.509064
O      1.803351    1.033013   -2.382905
O      0.623436    2.842828   -1.892015
N      1.557290   -0.157707    0.066493
C      2.926572   -0.330352    0.105742
C      3.764677    0.861819    0.340678
C      4.593774    1.332361   -0.682736
C      5.368395    2.481407   -0.478852
C      6.222777    3.016590   -1.593903
C      5.301505    3.140329    0.757628
C      4.488508    2.650157    1.783572
C      3.720351    1.505774    1.579672
O      3.487369   -1.414194   -0.029403
C      0.641744   -1.291392   -0.006952
C      0.708702   -2.174428    1.233943
C      0.599753   -1.636305    2.528256
C      0.625563   -2.468227    3.648192
C      0.760344   -3.846229    3.491279
C      0.872972   -4.392885    2.214263
C      0.851205   -3.563217    1.092524
C     -0.775707   -0.661110   -0.140977
C     -1.462725   -1.109847   -1.422573
C     -2.058518   -2.384817   -1.446738
C     -2.698633   -2.859431   -2.593085
C     -2.751428   -2.069733   -3.735863
C     -2.164952   -0.807499   -3.732285
C     -1.519847   -0.331520   -2.587254
H     -2.531504    1.500568    3.009193
H     -4.870172    0.836264    3.518022
H     -6.435097    0.287638    1.689750
H     -6.990055    0.432148   -0.693224
H     -5.797159    1.019852   -1.854470
H     -5.764368   -0.686813   -1.336465
H     -3.366084    1.169908   -1.199350
H      1.180481    1.822862    0.647826
H      1.805331    1.565654   -3.206206
H      4.616493    0.812510   -1.639772
H      6.839802    2.211464   -2.005940
H      6.893900    3.807976   -1.239044
H      5.582952    3.431390   -2.382330
H      5.885604    4.042593    0.929591
H      4.449553    3.169021    2.738127
H      3.089896    1.124823    2.378351
H      0.926434   -1.876461   -0.891597
H      0.495343   -0.563597    2.672239
H      0.545642   -2.040947    4.644572
H      0.788192   -4.493950    4.363196
H      0.990679   -5.466530    2.092263
H      0.960561   -4.009569    0.105338
H     -1.430639   -0.961898    0.689466
H     -2.032004   -3.023678   -0.564153
H     -3.151456   -3.846862   -2.596807
H     -3.251703   -2.441853   -4.627602
H     -2.210392   -0.186748   -4.623331
H     -1.091907    0.665921   -2.620043
