72

C      1.223970   -1.867456    1.152198
C      1.770257   -3.094909    1.536121
C      1.793137   -4.181488    0.649308
C      2.346780   -5.418683    1.017534
C      2.366403   -6.487693    0.119530
C      1.834478   -6.332619   -1.157067
C      1.281166   -5.108985   -1.538150
C      1.251779   -4.024665   -0.645614
C      0.699909   -2.787314   -1.016125
C      0.677192   -1.699430   -0.127118
C      0.100025   -0.373003   -0.582233
C     -1.021258    0.190963    0.326874
C     -2.387063   -0.235632   -0.182778
C     -3.098465   -1.231441    0.507654
C     -4.345205   -1.690697    0.051819
C     -5.056201   -2.686909    0.742753
C     -6.291036   -3.138300    0.274920
C     -6.830649   -2.598824   -0.888329
C     -6.137013   -1.607351   -1.585293
C     -4.893797   -1.143035   -1.127902
C     -4.184088   -0.147811   -1.816802
C     -2.945462    0.300739   -1.351537
N     -0.786438    1.631176    0.287552
C     -1.586394    2.519773    0.995530
C     -1.324978    3.944264    0.853834
C     -1.218872    4.872399    1.871153
C     -0.990843    6.205391    1.396326
C     -0.798708    7.388726    2.282531
C     -0.997607    6.239336    0.015351
S     -1.256752    4.699129   -0.680239
O     -2.461602    2.111094    1.753147
C      0.580745    1.908850   -0.117197
C      1.465786    2.315993    1.097949
O      2.016488    3.552033    0.998108
O      1.660733    1.608263    2.078913
N      1.136615    0.657629   -0.608719
C      1.882150    0.784792   -1.775826
C      3.317892    0.836181   -1.560882
C      4.054527    0.448328   -0.456303
C      5.467762    0.615781   -0.632262
C      6.486660    0.243071    0.389561
C      5.742196    1.168428   -1.867388
S      4.333823    1.443869   -2.795233
O      1.322159    0.896059   -2.865046
H      1.246377   -1.042559    1.863377
H      2.187551   -3.196685    2.537394
H      2.769128   -5.558078    2.009715
H      2.799108   -7.438640    0.418933
H      1.848238   -7.162945   -1.859918
H      0.870797   -5.008076   -2.540677
H      0.288558   -2.667002   -2.019046
H     -0.275541   -0.487744   -1.607517
H     -0.903925   -0.108964    1.376591
H     -2.676000   -1.656869    1.417668
H     -4.649643   -3.120916    1.653978
H     -6.829768   -3.907763    0.821619
H     -7.791582   -2.947803   -1.255501
H     -6.577556   -1.196911   -2.490510
H     -4.593220    0.287454   -2.725864
H     -2.422485    1.069895   -1.916019
H     -1.294878    4.601377    2.920799
H     -1.756152    7.694796    2.714290
H     -0.383908    8.237857    1.730492
H     -0.108416    7.149498    3.097695
H     -0.881598    7.104932   -0.625910
H      0.610960    2.671416   -0.897501
H      1.752189    4.082335    0.222273
H      3.610945    0.025944    0.438023
H      6.512308    0.990688    1.188688
H      6.247852   -0.728475    0.834541
H      7.488068    0.174067   -0.048523
H      6.712394    1.413146   -2.279713
