74

C      2.031615   -2.987186    0.680925
O      2.063971   -2.031404    1.666187
C      3.292138   -1.902037    2.378033
C      2.837580   -4.135701    0.711195
C      2.792414   -5.070157   -0.320403
C      1.936823   -4.865758   -1.393016
C      1.121106   -3.739126   -1.421725
C      1.121700   -2.795426   -0.375816
C      0.173433   -1.603560   -0.492358
C     -0.729156   -1.324388    0.742065
C     -2.016316   -2.062813    1.083484
C     -2.623323   -1.727292    2.320237
C     -3.813400   -2.320292    2.738050
C     -4.432885   -3.259447    1.925517
C     -3.852113   -3.613901    0.709446
C     -2.640068   -3.038638    0.290139
O     -2.076813   -3.359165   -0.916002
C     -2.161629   -4.743205   -1.269896
N     -0.865222    0.152987    0.735460
C     -1.979787    0.730184    0.111270
C     -2.328935    2.033067    0.646447
C     -3.376890    2.882887    0.361040
C     -3.234800    4.021279    1.204398
C     -4.118839    5.210181    1.263007
C     -2.095934    3.789007    1.953417
C     -1.390371    4.571757    2.993816
O     -1.554559    2.582598    1.632465
O     -2.615512    0.174727   -0.776714
C      0.401522    0.683920    0.216824
C      1.348444    0.971128    1.427912
O      0.684539    1.131700    2.607129
O      2.560139    1.121130    1.357034
N      0.906588   -0.328549   -0.693024
C      1.508868   -0.090920   -1.931984
C      2.139435    1.187705   -2.251109
C      2.533491    2.329220   -1.573218
C      3.130069    3.222288   -2.516571
C      3.714893    4.554626   -2.232927
C      3.079900    2.564268   -3.726382
C      3.545001    2.876680   -5.095575
O      2.482871    1.356551   -3.574020
O      1.475873   -0.985173   -2.786272
H      4.137829   -1.786821    1.689535
H      3.443803   -2.748519    3.053803
H      3.233178   -0.999244    3.000414
H      3.512595   -4.329974    1.535945
H      3.425916   -5.950919   -0.292130
H      1.899443   -5.577568   -2.213926
H      0.474921   -3.588226   -2.283486
H     -0.464060   -1.712785   -1.378946
H     -0.126004   -1.503605    1.638567
H     -2.161009   -0.983231    2.970740
H     -4.263290   -2.037964    3.687081
H     -5.375138   -3.708693    2.231062
H     -4.389990   -4.317261    0.081111
H     -1.559191   -4.889754   -2.172619
H     -1.749045   -5.381897   -0.480659
H     -3.183935   -5.043758   -1.535525
H     -4.153147    2.691604   -0.369202
H     -5.109683    4.989652    0.847431
H     -3.685101    6.037348    0.689641
H     -4.254088    5.545285    2.296266
H     -0.393538    4.161514    3.188329
H     -1.273399    5.615205    2.682303
H     -1.952972    4.551834    3.932192
H      0.233089    1.628180   -0.310074
H     -0.286217    1.064028    2.461399
H      2.445650    2.533476   -0.518092
H      3.529190    5.254022   -3.058200
H      4.797688    4.470195   -2.079013
H      3.267656    4.989070   -1.329846
H      3.889574    3.911053   -5.181533
H      4.377910    2.220400   -5.369703
H      2.735505    2.733605   -5.821348
