
  xtb     03172200563D
 xtb: 6.3.3 (4ae9cef)
 74 78  0     0  0            999 V2000
    2.3134   -2.7446    1.9810 C   0  0  0  0  0  0  0  0  0  0  0  0
    1.6392   -1.8533    2.7691 O   0  0  0  0  0  0  0  0  0  0  0  0
    2.1499   -1.5687    4.0518 C   0  0  0  0  0  0  0  0  0  0  0  0
    3.4864   -3.3766    2.3791 C   0  0  0  0  0  0  0  0  0  0  0  0
    4.1209   -4.2800    1.5458 C   0  0  0  0  0  0  0  0  0  0  0  0
    3.5927   -4.5689    0.3028 C   0  0  0  0  0  0  0  0  0  0  0  0
    2.4279   -3.9408   -0.0978 C   0  0  0  0  0  0  0  0  0  0  0  0
    1.7709   -3.0321    0.7203 C   0  0  0  0  0  0  0  0  0  0  0  0
    0.5538   -2.3486    0.1428 C   0  0  0  0  0  0  0  0  0  0  0  0
   -0.5999   -1.9881    1.1040 C   0  0  0  0  0  0  0  0  0  0  0  0
   -1.9228   -2.4580    0.5497 C   0  0  0  0  0  0  0  0  0  0  0  0
   -2.5332   -3.5684    1.1064 C   0  0  0  0  0  0  0  0  0  0  0  0
   -3.7192   -4.0676    0.5975 C   0  0  0  0  0  0  0  0  0  0  0  0
   -4.3069   -3.4427   -0.4843 C   0  0  0  0  0  0  0  0  0  0  0  0
   -3.7161   -2.3284   -1.0549 C   0  0  0  0  0  0  0  0  0  0  0  0
   -2.5236   -1.8263   -0.5499 C   0  0  0  0  0  0  0  0  0  0  0  0
   -1.8868   -0.7262   -1.0558 O   0  0  0  0  0  0  0  0  0  0  0  0
   -2.4067   -0.1235   -2.2154 C   0  0  0  0  0  0  0  0  0  0  0  0
   -0.5244   -0.5321    1.2213 N   0  0  0  0  0  0  0  0  0  0  0  0
   -1.6018    0.1504    1.7021 C   0  0  0  0  0  0  0  0  0  0  0  0
   -1.6560    1.6101    1.5361 C   0  0  0  0  0  0  0  0  0  0  0  0
   -2.7475    2.4109    1.7620 C   0  0  0  0  0  0  0  0  0  0  0  0
   -2.3661    3.7322    1.4361 C   0  0  0  0  0  0  0  0  0  0  0  0
   -3.2083    4.9569    1.5213 C   0  0  0  0  0  0  0  0  0  0  0  0
   -1.0557    3.6548    1.0368 C   0  0  0  0  0  0  0  0  0  0  0  0
   -0.1000    4.6986    0.5850 C   0  0  0  0  0  0  0  0  0  0  0  0
   -0.6215    2.3783    1.0943 O   0  0  0  0  0  0  0  0  0  0  0  0
   -2.5058   -0.4246    2.2860 O   0  0  0  0  0  0  0  0  0  0  0  0
    0.5900   -0.0179    0.4547 C   0  0  0  0  0  0  0  0  0  0  0  0
    1.7827    0.3735    1.3692 C   0  0  0  0  0  0  0  0  0  0  0  0
    1.4357    0.9254    2.5296 O   0  0  0  0  0  0  0  0  0  0  0  0
    2.9225    0.2825    1.0193 O   0  0  0  0  0  0  0  0  0  0  0  0
    0.9277   -1.0712   -0.4543 N   0  0  0  0  0  0  0  0  0  0  0  0
    0.9820   -0.9652   -1.8166 C   0  0  0  0  0  0  0  0  0  0  0  0
    1.2349    0.3901   -2.3395 C   0  0  0  0  0  0  0  0  0  0  0  0
    2.0044    1.4318   -1.8845 C   0  0  0  0  0  0  0  0  0  0  0  0
    1.9351    2.4467   -2.8674 C   0  0  0  0  0  0  0  0  0  0  0  0
    2.6006    3.7792   -2.8324 C   0  0  0  0  0  0  0  0  0  0  0  0
    1.1250    1.9502   -3.8583 C   0  0  0  0  0  0  0  0  0  0  0  0
    0.6691    2.5542   -5.1380 C   0  0  0  0  0  0  0  0  0  0  0  0
    0.7104    0.7097   -3.5461 O   0  0  0  0  0  0  0  0  0  0  0  0
    0.8749   -1.9341   -2.5414 O   0  0  0  0  0  0  0  0  0  0  0  0
    3.1206   -1.0693    3.9900 H   0  0  0  0  0  0  0  0  0  0  0  0
    2.2339   -2.4757    4.6579 H   0  0  0  0  0  0  0  0  0  0  0  0
    1.4301   -0.8954    4.5146 H   0  0  0  0  0  0  0  0  0  0  0  0
    3.9250   -3.1591    3.3394 H   0  0  0  0  0  0  0  0  0  0  0  0
    5.0338   -4.7524    1.8764 H   0  0  0  0  0  0  0  0  0  0  0  0
    4.0843   -5.2704   -0.3531 H   0  0  0  0  0  0  0  0  0  0  0  0
    2.0177   -4.1433   -1.0757 H   0  0  0  0  0  0  0  0  0  0  0  0
    0.1763   -2.9787   -0.6710 H   0  0  0  0  0  0  0  0  0  0  0  0
   -0.4567   -2.4387    2.0893 H   0  0  0  0  0  0  0  0  0  0  0  0
   -2.0684   -4.0471    1.9554 H   0  0  0  0  0  0  0  0  0  0  0  0
   -4.1801   -4.9336    1.0466 H   0  0  0  0  0  0  0  0  0  0  0  0
   -5.2345   -3.8155   -0.8926 H   0  0  0  0  0  0  0  0  0  0  0  0
   -4.1964   -1.8554   -1.8964 H   0  0  0  0  0  0  0  0  0  0  0  0
   -1.7213    0.6863   -2.4620 H   0  0  0  0  0  0  0  0  0  0  0  0
   -2.4367   -0.8286   -3.0512 H   0  0  0  0  0  0  0  0  0  0  0  0
   -3.4054    0.2902   -2.0401 H   0  0  0  0  0  0  0  0  0  0  0  0
   -3.7011    2.0735    2.1122 H   0  0  0  0  0  0  0  0  0  0  0  0
   -4.2573    4.6851    1.5986 H   0  0  0  0  0  0  0  0  0  0  0  0
   -3.0667    5.5824    0.6419 H   0  0  0  0  0  0  0  0  0  0  0  0
   -2.9390    5.5445    2.3986 H   0  0  0  0  0  0  0  0  0  0  0  0
    0.7785    4.2258    0.1536 H   0  0  0  0  0  0  0  0  0  0  0  0
   -0.5668    5.3433   -0.1571 H   0  0  0  0  0  0  0  0  0  0  0  0
    0.2132    5.3206    1.4235 H   0  0  0  0  0  0  0  0  0  0  0  0
    0.3214    0.8866   -0.1064 H   0  0  0  0  0  0  0  0  0  0  0  0
    0.4823    0.8489    2.6907 H   0  0  0  0  0  0  0  0  0  0  0  0
    2.5893    1.4484   -0.9880 H   0  0  0  0  0  0  0  0  0  0  0  0
    1.8615    4.5786   -2.7769 H   0  0  0  0  0  0  0  0  0  0  0  0
    3.1920    3.9343   -3.7333 H   0  0  0  0  0  0  0  0  0  0  0  0
    3.2556    3.8463   -1.9684 H   0  0  0  0  0  0  0  0  0  0  0  0
    0.0431    3.4269   -4.9528 H   0  0  0  0  0  0  0  0  0  0  0  0
    1.5248    2.8739   -5.7307 H   0  0  0  0  0  0  0  0  0  0  0  0
    0.0995    1.8200   -5.7004 H   0  0  0  0  0  0  0  0  0  0  0  0
  1  2  1  0  0  0  0
  2  3  1  0  0  0  0
  1  4  4  0  0  0  0
  4  5  4  0  0  0  0
  5  6  4  0  0  0  0
  6  7  4  0  0  0  0
  1  8  4  0  0  0  0
  7  8  4  0  0  0  0
  8  9  1  0  0  0  0
  9 10  1  0  0  0  0
 10 11  1  0  0  0  0
 11 12  4  0  0  0  0
 12 13  4  0  0  0  0
 13 14  4  0  0  0  0
 14 15  4  0  0  0  0
 11 16  4  0  0  0  0
 15 16  4  0  0  0  0
 16 17  1  0  0  0  0
 17 18  1  0  0  0  0
 10 19  1  0  0  0  0
 19 20  1  0  0  0  0
 20 21  1  0  0  0  0
 21 22  2  0  0  0  0
 22 23  4  0  0  0  0
 23 24  1  0  0  0  0
 23 25  2  0  0  0  0
 25 26  1  0  0  0  0
 21 27  1  0  0  0  0
 25 27  1  0  0  0  0
 20 28  2  0  0  0  0
 19 29  1  0  0  0  0
 29 30  1  0  0  0  0
 30 31  1  0  0  0  0
 30 32  2  0  0  0  0
  9 33  1  0  0  0  0
 29 33  1  0  0  0  0
 33 34  1  0  0  0  0
 34 35  1  0  0  0  0
 35 36  2  0  0  0  0
 36 37  4  0  0  0  0
 37 38  1  0  0  0  0
 37 39  2  0  0  0  0
 39 40  1  0  0  0  0
 35 41  1  0  0  0  0
 39 41  1  0  0  0  0
 34 42  2  0  0  0  0
  3 43  1  0  0  0  0
  3 44  1  0  0  0  0
  3 45  1  0  0  0  0
  4 46  1  0  0  0  0
  5 47  1  0  0  0  0
  6 48  1  0  0  0  0
  7 49  1  0  0  0  0
  9 50  1  0  0  0  0
 10 51  1  0  0  0  0
 12 52  1  0  0  0  0
 13 53  1  0  0  0  0
 14 54  1  0  0  0  0
 15 55  1  0  0  0  0
 18 56  1  0  0  0  0
 18 57  1  0  0  0  0
 18 58  1  0  0  0  0
 22 59  1  0  0  0  0
 24 60  1  0  0  0  0
 24 61  1  0  0  0  0
 24 62  1  0  0  0  0
 26 63  1  0  0  0  0
 26 64  1  0  0  0  0
 26 65  1  0  0  0  0
 29 66  1  0  0  0  0
 31 67  1  0  0  0  0
 36 68  1  0  0  0  0
 38 69  1  0  0  0  0
 38 70  1  0  0  0  0
 38 71  1  0  0  0  0
 40 72  1  0  0  0  0
 40 73  1  0  0  0  0
 40 74  1  0  0  0  0
M  END
