62

C     -2.476584   -2.466367   -1.343135
C     -3.248642   -3.313966   -2.142240
C     -2.741100   -4.544299   -2.553378
C     -1.458856   -4.928330   -2.168649
C     -0.682455   -4.075873   -1.381447
C     -1.173975   -2.824323   -0.961246
C     -0.275398   -1.954791   -0.090673
C      0.977091   -1.431625   -0.866693
C      2.272447   -1.905227   -0.216706
C      3.198412   -2.648994   -0.965526
C      4.388399   -3.093697   -0.387047
C      4.670310   -2.802451    0.945590
C      3.765505   -2.057751    1.700561
C      2.575797   -1.610279    1.124030
N      0.862184    0.029628   -0.830527
C      1.749617    0.847434   -1.504256
C      1.667285    2.304693   -1.266159
C      1.475408    3.166670   -2.346865
C      1.397996    4.542257   -2.128252
C      1.525111    5.051542   -0.833121
C      1.748706    4.188130    0.245650
C      1.896498    4.707101    1.574423
N      1.999194    5.100230    2.662050
C      1.831343    2.809965    0.027439
O      2.610303    0.442322   -2.277228
C     -0.413652    0.438318   -0.270554
C     -1.480238    0.837094   -1.337488
O     -1.026728    0.858041   -2.607869
O     -2.653212    1.101513   -1.110733
N     -0.892728   -0.734777    0.441398
C     -1.624862   -0.756652    1.607752
C     -1.970736    0.531601    2.234113
C     -3.203077    1.128443    1.967130
C     -3.514757    2.349027    2.571848
C     -4.774711    2.982147    2.306886
N     -5.786748    3.510526    2.092896
C     -2.593887    2.952135    3.439885
C     -1.369583    2.336098    3.715872
C     -1.058640    1.116974    3.118638
O     -1.959709   -1.779062    2.192931
H     -2.928572   -1.538669   -1.007146
H     -4.256929   -3.022232   -2.430524
H     -3.351117   -5.208423   -3.160829
H     -1.067816   -5.901447   -2.464089
H      0.310407   -4.408494   -1.077972
H      0.003099   -2.579406    0.769556
H      0.955459   -1.728328   -1.923169
H      3.007339   -2.868616   -2.013377
H      5.101788   -3.661904   -0.978713
H      5.598981   -3.150197    1.390738
H      3.987458   -1.819981    2.737029
H      1.884932   -1.030250    1.732202
H      1.393807    2.764937   -3.354192
H      1.253385    5.215324   -2.969229
H      1.468093    6.127147   -0.674155
H      2.044684    2.130651    0.851588
H     -0.284250    1.294313    0.390653
H     -1.815994    1.013723   -3.169759
H     -3.909955    0.648996    1.293052
H     -2.832477    3.901177    3.918301
H     -0.671264    2.800319    4.408378
H     -0.122386    0.617935    3.352358
