66

O      2.557349    2.395758   -0.426741
C      2.377681    1.177523   -0.450948
C      3.439996    0.199621   -0.944418
C      4.641875    0.856947   -1.583637
C      5.795248    1.114607   -0.829924
C      6.901678    1.728848   -1.417464
C      6.865441    2.092424   -2.762411
C      5.721014    1.847962   -3.519371
C      4.612009    1.236931   -2.932638
N      1.185863    0.636671   -0.007586
C      0.112199    1.535242    0.394171
C      0.276735    1.994211    1.884856
O      1.518803    1.835752    2.399167
O     -0.585469    2.476814    2.606758
N     -1.112081    0.767496    0.233041
C     -2.326816    1.415330    0.311723
C     -3.572278    0.562028    0.529160
C     -4.650876    1.223769    1.359533
C     -5.983087    1.213658    0.920581
C     -6.991720    1.783417    1.700156
C     -6.682598    2.361847    2.928485
C     -5.364098    2.371502    3.379878
C     -4.353977    1.800712    2.603231
O     -2.385720    2.639953    0.192957
C     -0.831856   -0.661759    0.088835
C     -1.603640   -1.340780   -1.030582
C     -1.768898   -0.735056   -2.287933
C     -2.462153   -1.390793   -3.305484
C     -2.990497   -2.660783   -3.084356
C     -2.824917   -3.277876   -1.846748
C     -2.133567   -2.624609   -0.826097
C      0.695040   -0.726829   -0.212159
C      1.389829   -1.793123    0.612948
C      1.706237   -3.025123    0.014557
C      2.325166   -4.038307    0.748096
C      2.629108   -3.839051    2.091519
C      2.313456   -2.628064    2.701630
C      1.695749   -1.612776    1.968640
H      3.774097   -0.404210   -0.093145
H      3.001190   -0.483785   -1.679647
H      5.835677    0.846364    0.222671
H      7.788983    1.931276   -0.823076
H      7.725250    2.576109   -3.217386
H      5.688396    2.141566   -4.565382
H      3.722438    1.068701   -3.533474
H      0.094656    2.430872   -0.237288
H      1.466395    2.280831    3.270220
H     -3.314980   -0.371081    1.039747
H     -3.966021    0.311638   -0.462056
H     -6.245618    0.766669   -0.035252
H     -8.019109    1.776997    1.345953
H     -7.466656    2.810082    3.533336
H     -5.117766    2.830012    4.333119
H     -3.329327    1.828664    2.971267
H     -1.081118   -1.120443    1.054098
H     -1.364845    0.257396   -2.483624
H     -2.592083   -0.908541   -4.271548
H     -3.531942   -3.170115   -3.877236
H     -3.235202   -4.270108   -1.675919
H     -2.013579   -3.129062    0.131383
H      0.874315   -0.941016   -1.273972
H      1.474060   -3.209246   -1.033599
H      2.570294   -4.983946    0.270429
H      3.112502   -4.627132    2.663154
H      2.550606   -2.471576    3.751179
H      1.463156   -0.681013    2.474623
