
  xtb     03162222023D
 xtb: 6.3.3 (4ae9cef)
 80 86  0     0  0            999 V2000
    1.0567   -1.6496    2.9271 C   0  0  0  0  0  0  0  0  0  0  0  0
    1.7318   -2.3935    2.0063 O   0  0  0  0  0  0  0  0  0  0  0  0
    2.5402   -3.4536    2.4567 C   0  0  0  0  0  0  0  0  0  0  0  0
    1.0679   -1.8914    4.2954 C   0  0  0  0  0  0  0  0  0  0  0  0
    0.3468   -1.0790    5.1539 C   0  0  0  0  0  0  0  0  0  0  0  0
   -0.3964   -0.0224    4.6640 C   0  0  0  0  0  0  0  0  0  0  0  0
   -0.4093    0.2240    3.3023 C   0  0  0  0  0  0  0  0  0  0  0  0
    0.3129   -0.5701    2.4281 C   0  0  0  0  0  0  0  0  0  0  0  0
    0.3204   -0.2890    0.9457 C   0  0  0  0  0  0  0  0  0  0  0  0
   -1.0330   -0.6020    0.2853 C   0  0  0  0  0  0  0  0  0  0  0  0
   -0.9546   -1.6174   -0.8292 C   0  0  0  0  0  0  0  0  0  0  0  0
   -0.0108   -1.5091   -1.8370 C   0  0  0  0  0  0  0  0  0  0  0  0
   -0.0116   -2.3719   -2.9194 C   0  0  0  0  0  0  0  0  0  0  0  0
   -0.9806   -3.3537   -2.9982 C   0  0  0  0  0  0  0  0  0  0  0  0
   -1.9169   -3.4980   -1.9898 C   0  0  0  0  0  0  0  0  0  0  0  0
   -1.9085   -2.6469   -0.8885 C   0  0  0  0  0  0  0  0  0  0  0  0
   -2.7520   -2.7542    0.1647 O   0  0  0  0  0  0  0  0  0  0  0  0
   -3.8824   -3.5854    0.0441 C   0  0  0  0  0  0  0  0  0  0  0  0
   -1.4897    0.6874   -0.2433 N   0  0  0  0  0  0  0  0  0  0  0  0
   -2.7105    0.8091   -0.8386 C   0  0  0  0  0  0  0  0  0  0  0  0
   -3.0085    2.1948   -1.3138 C   0  0  0  0  0  0  0  0  0  0  0  0
   -2.8163    2.5037   -2.6833 C   0  0  0  0  0  0  0  0  0  0  0  0
   -2.3641    1.5475   -3.6174 C   0  0  0  0  0  0  0  0  0  0  0  0
   -2.1639    1.8942   -4.9237 C   0  0  0  0  0  0  0  0  0  0  0  0
   -2.3995    3.2088   -5.3546 C   0  0  0  0  0  0  0  0  0  0  0  0
   -2.8438    4.1537   -4.4737 C   0  0  0  0  0  0  0  0  0  0  0  0
   -3.0670    3.8303   -3.1192 C   0  0  0  0  0  0  0  0  0  0  0  0
   -3.5258    4.7851   -2.1894 C   0  0  0  0  0  0  0  0  0  0  0  0
   -3.7390    4.4462   -0.8832 C   0  0  0  0  0  0  0  0  0  0  0  0
   -3.4768    3.1432   -0.4409 C   0  0  0  0  0  0  0  0  0  0  0  0
   -3.4516   -0.1374   -0.9916 O   0  0  0  0  0  0  0  0  0  0  0  0
   -0.6242    1.7834    0.1179 C   0  0  0  0  0  0  0  0  0  0  0  0
   -0.2311    2.6533   -1.1094 C   0  0  0  0  0  0  0  0  0  0  0  0
    0.2639    1.9390   -2.1221 O   0  0  0  0  0  0  0  0  0  0  0  0
   -0.3456    3.8375   -1.1435 O   0  0  0  0  0  0  0  0  0  0  0  0
    0.5488    1.1211    0.6538 N   0  0  0  0  0  0  0  0  0  0  0  0
    1.6014    1.8509    1.1255 C   0  0  0  0  0  0  0  0  0  0  0  0
    2.6884    1.0286    1.7417 C   0  0  0  0  0  0  0  0  0  0  0  0
    2.9075    1.1306    3.0917 C   0  0  0  0  0  0  0  0  0  0  0  0
    3.8814    0.3407    3.7173 C   0  0  0  0  0  0  0  0  0  0  0  0
    4.6269   -0.5403    2.9856 C   0  0  0  0  0  0  0  0  0  0  0  0
    4.4545   -0.6464    1.5895 C   0  0  0  0  0  0  0  0  0  0  0  0
    3.4845    0.1665    0.9478 C   0  0  0  0  0  0  0  0  0  0  0  0
    3.3566    0.0938   -0.4560 C   0  0  0  0  0  0  0  0  0  0  0  0
    4.1169   -0.7785   -1.1833 C   0  0  0  0  0  0  0  0  0  0  0  0
    5.0478   -1.6117   -0.5438 C   0  0  0  0  0  0  0  0  0  0  0  0
    5.2206   -1.5382    0.8095 C   0  0  0  0  0  0  0  0  0  0  0  0
    1.6308    3.0582    1.0422 O   0  0  0  0  0  0  0  0  0  0  0  0
    3.0035   -3.8652    1.5615 H   0  0  0  0  0  0  0  0  0  0  0  0
    3.3199   -3.0988    3.1373 H   0  0  0  0  0  0  0  0  0  0  0  0
    1.9458   -4.2301    2.9483 H   0  0  0  0  0  0  0  0  0  0  0  0
    1.6381   -2.7102    4.7038 H   0  0  0  0  0  0  0  0  0  0  0  0
    0.3691   -1.2808    6.2143 H   0  0  0  0  0  0  0  0  0  0  0  0
   -0.9604    0.6072    5.3343 H   0  0  0  0  0  0  0  0  0  0  0  0
   -0.9808    1.0535    2.9132 H   0  0  0  0  0  0  0  0  0  0  0  0
    1.1114   -0.8951    0.4937 H   0  0  0  0  0  0  0  0  0  0  0  0
   -1.7587   -0.9617    1.0228 H   0  0  0  0  0  0  0  0  0  0  0  0
    0.7633   -0.7557   -1.7735 H   0  0  0  0  0  0  0  0  0  0  0  0
    0.7314   -2.2678   -3.6946 H   0  0  0  0  0  0  0  0  0  0  0  0
   -1.0084   -4.0216   -3.8461 H   0  0  0  0  0  0  0  0  0  0  0  0
   -2.6565   -4.2784   -2.0703 H   0  0  0  0  0  0  0  0  0  0  0  0
   -4.4813   -3.3084   -0.8272 H   0  0  0  0  0  0  0  0  0  0  0  0
   -3.6022   -4.6425   -0.0149 H   0  0  0  0  0  0  0  0  0  0  0  0
   -4.4648   -3.4188    0.9488 H   0  0  0  0  0  0  0  0  0  0  0  0
   -2.1940    0.5308   -3.2902 H   0  0  0  0  0  0  0  0  0  0  0  0
   -1.8198    1.1565   -5.6337 H   0  0  0  0  0  0  0  0  0  0  0  0
   -2.2275    3.4652   -6.3897 H   0  0  0  0  0  0  0  0  0  0  0  0
   -3.0287    5.1671   -4.7997 H   0  0  0  0  0  0  0  0  0  0  0  0
   -3.7062    5.7940   -2.5304 H   0  0  0  0  0  0  0  0  0  0  0  0
   -4.0977    5.1799   -0.1773 H   0  0  0  0  0  0  0  0  0  0  0  0
   -3.6445    2.8870    0.5959 H   0  0  0  0  0  0  0  0  0  0  0  0
   -1.0755    2.4658    0.8597 H   0  0  0  0  0  0  0  0  0  0  0  0
    0.1553    0.9822   -1.9786 H   0  0  0  0  0  0  0  0  0  0  0  0
    2.3073    1.8081    3.6799 H   0  0  0  0  0  0  0  0  0  0  0  0
    4.0257    0.4299    4.7835 H   0  0  0  0  0  0  0  0  0  0  0  0
    5.3715   -1.1619    3.4638 H   0  0  0  0  0  0  0  0  0  0  0  0
    2.6693    0.7643   -0.9522 H   0  0  0  0  0  0  0  0  0  0  0  0
    4.0129   -0.8272   -2.2573 H   0  0  0  0  0  0  0  0  0  0  0  0
    5.6361   -2.2996   -1.1332 H   0  0  0  0  0  0  0  0  0  0  0  0
    5.9534   -2.1599    1.3045 H   0  0  0  0  0  0  0  0  0  0  0  0
  1  2  1  0  0  0  0
  2  3  1  0  0  0  0
  1  4  4  0  0  0  0
  4  5  4  0  0  0  0
  5  6  4  0  0  0  0
  6  7  4  0  0  0  0
  1  8  4  0  0  0  0
  7  8  4  0  0  0  0
  8  9  1  0  0  0  0
  9 10  1  0  0  0  0
 10 11  1  0  0  0  0
 11 12  4  0  0  0  0
 12 13  4  0  0  0  0
 13 14  4  0  0  0  0
 14 15  4  0  0  0  0
 11 16  4  0  0  0  0
 15 16  4  0  0  0  0
 16 17  1  0  0  0  0
 17 18  1  0  0  0  0
 10 19  1  0  0  0  0
 19 20  1  0  0  0  0
 20 21  1  0  0  0  0
 21 22  4  0  0  0  0
 22 23  4  0  0  0  0
 23 24  2  0  0  0  0
 24 25  4  0  0  0  0
 25 26  2  0  0  0  0
 22 27  4  0  0  0  0
 26 27  4  0  0  0  0
 27 28  4  0  0  0  0
 28 29  2  0  0  0  0
 21 30  2  0  0  0  0
 29 30  4  0  0  0  0
 20 31  2  0  0  0  0
 19 32  1  0  0  0  0
 32 33  1  0  0  0  0
 33 34  1  0  0  0  0
 33 35  2  0  0  0  0
  9 36  1  0  0  0  0
 32 36  1  0  0  0  0
 36 37  1  0  0  0  0
 37 38  1  0  0  0  0
 38 39  2  0  0  0  0
 39 40  4  0  0  0  0
 40 41  2  0  0  0  0
 41 42  4  0  0  0  0
 38 43  4  0  0  0  0
 42 43  4  0  0  0  0
 43 44  4  0  0  0  0
 44 45  2  0  0  0  0
 45 46  4  0  0  0  0
 42 47  4  0  0  0  0
 46 47  2  0  0  0  0
 37 48  2  0  0  0  0
  3 49  1  0  0  0  0
  3 50  1  0  0  0  0
  3 51  1  0  0  0  0
  4 52  1  0  0  0  0
  5 53  1  0  0  0  0
  6 54  1  0  0  0  0
  7 55  1  0  0  0  0
  9 56  1  0  0  0  0
 10 57  1  0  0  0  0
 12 58  1  0  0  0  0
 13 59  1  0  0  0  0
 14 60  1  0  0  0  0
 15 61  1  0  0  0  0
 18 62  1  0  0  0  0
 18 63  1  0  0  0  0
 18 64  1  0  0  0  0
 23 65  1  0  0  0  0
 24 66  1  0  0  0  0
 25 67  1  0  0  0  0
 26 68  1  0  0  0  0
 28 69  1  0  0  0  0
 29 70  1  0  0  0  0
 30 71  1  0  0  0  0
 32 72  1  0  0  0  0
 34 73  1  0  0  0  0
 39 74  1  0  0  0  0
 40 75  1  0  0  0  0
 41 76  1  0  0  0  0
 44 77  1  0  0  0  0
 45 78  1  0  0  0  0
 46 79  1  0  0  0  0
 47 80  1  0  0  0  0
M  END
