
  xtb     03172201403D
 xtb: 6.3.3 (4ae9cef)
 76 84  0     0  0            999 V2000
   -2.6065    2.1154   -0.9190 C   0  0  0  0  0  0  0  0  0  0  0  0
   -3.7834    2.6292   -0.4553 C   0  0  0  0  0  0  0  0  0  0  0  0
   -4.4589    2.0257    0.6255 C   0  0  0  0  0  0  0  0  0  0  0  0
   -5.6811    2.5225    1.1238 C   0  0  0  0  0  0  0  0  0  0  0  0
   -6.3080    1.9081    2.1714 C   0  0  0  0  0  0  0  0  0  0  0  0
   -5.7427    0.7697    2.7687 C   0  0  0  0  0  0  0  0  0  0  0  0
   -4.5586    0.2648    2.3103 C   0  0  0  0  0  0  0  0  0  0  0  0
   -3.8870    0.8766    1.2312 C   0  0  0  0  0  0  0  0  0  0  0  0
   -2.6631    0.3791    0.7437 C   0  0  0  0  0  0  0  0  0  0  0  0
   -2.0394    0.9755   -0.3202 C   0  0  0  0  0  0  0  0  0  0  0  0
   -0.7094    0.4811   -0.8184 C   0  0  0  0  0  0  0  0  0  0  0  0
    0.4333    0.9453    0.1035 C   0  0  0  0  0  0  0  0  0  0  0  0
    1.0728    2.2178   -0.3728 C   0  0  0  0  0  0  0  0  0  0  0  0
    0.7657    3.4090    0.2285 C   0  0  0  0  0  0  0  0  0  0  0  0
    1.3267    4.6184   -0.2272 C   0  0  0  0  0  0  0  0  0  0  0  0
    1.0255    5.8568    0.3773 C   0  0  0  0  0  0  0  0  0  0  0  0
    1.5913    7.0129   -0.0816 C   0  0  0  0  0  0  0  0  0  0  0  0
    2.4826    6.9852   -1.1660 C   0  0  0  0  0  0  0  0  0  0  0  0
    2.7932    5.8013   -1.7742 C   0  0  0  0  0  0  0  0  0  0  0  0
    2.2267    4.5909   -1.3244 C   0  0  0  0  0  0  0  0  0  0  0  0
    2.5226    3.3506   -1.9272 C   0  0  0  0  0  0  0  0  0  0  0  0
    1.9571    2.1962   -1.4679 C   0  0  0  0  0  0  0  0  0  0  0  0
    1.3530   -0.1895    0.1221 N   0  0  0  0  0  0  0  0  0  0  0  0
    2.3050   -0.2387    1.0964 C   0  0  0  0  0  0  0  0  0  0  0  0
    2.9594   -1.5849    1.2731 C   0  0  0  0  0  0  0  0  0  0  0  0
    2.5634   -2.4327    2.3080 C   0  0  0  0  0  0  0  0  0  0  0  0
    1.4512   -2.0506    3.1437 N   0  0  0  0  0  0  0  0  0  0  0  0
    0.6559   -1.2670    2.6629 O   0  0  0  0  0  0  0  0  0  0  0  0
    1.3858   -2.5248    4.2496 O   0  0  0  0  0  0  0  0  0  0  0  0
    3.2023   -3.6417    2.5402 C   0  0  0  0  0  0  0  0  0  0  0  0
    4.2526   -4.0155    1.7232 C   0  0  0  0  0  0  0  0  0  0  0  0
    4.6691   -3.1749    0.7020 C   0  0  0  0  0  0  0  0  0  0  0  0
    4.0342   -1.9635    0.4824 C   0  0  0  0  0  0  0  0  0  0  0  0
    2.6635    0.7332    1.7166 O   0  0  0  0  0  0  0  0  0  0  0  0
    0.7557   -1.3699   -0.4473 C   0  0  0  0  0  0  0  0  0  0  0  0
    1.5383   -1.8613   -1.6842 C   0  0  0  0  0  0  0  0  0  0  0  0
    1.5043   -0.9882   -2.6813 O   0  0  0  0  0  0  0  0  0  0  0  0
    2.1018   -2.9206   -1.7390 O   0  0  0  0  0  0  0  0  0  0  0  0
   -0.5818   -0.9723   -0.8055 N   0  0  0  0  0  0  0  0  0  0  0  0
   -1.5060   -1.7744   -1.3943 C   0  0  0  0  0  0  0  0  0  0  0  0
   -1.1177   -3.2285   -1.4874 C   0  0  0  0  0  0  0  0  0  0  0  0
   -0.9998   -3.7749   -2.7597 C   0  0  0  0  0  0  0  0  0  0  0  0
   -0.6127   -5.0928   -2.9327 C   0  0  0  0  0  0  0  0  0  0  0  0
   -0.3323   -5.8908   -1.8348 C   0  0  0  0  0  0  0  0  0  0  0  0
   -0.4603   -5.3725   -0.5606 C   0  0  0  0  0  0  0  0  0  0  0  0
   -0.8662   -4.0555   -0.3936 C   0  0  0  0  0  0  0  0  0  0  0  0
   -1.0266   -3.5629    0.9519 N   0  0  0  0  0  0  0  0  0  0  0  0
   -1.8938   -2.7474    1.1565 O   0  0  0  0  0  0  0  0  0  0  0  0
   -0.2602   -3.9999    1.7896 O   0  0  0  0  0  0  0  0  0  0  0  0
   -2.5282   -1.3628   -1.8895 O   0  0  0  0  0  0  0  0  0  0  0  0
   -2.0962    2.5814   -1.7501 H   0  0  0  0  0  0  0  0  0  0  0  0
   -4.2164    3.5056   -0.9163 H   0  0  0  0  0  0  0  0  0  0  0  0
   -6.1134    3.3983    0.6603 H   0  0  0  0  0  0  0  0  0  0  0  0
   -7.2445    2.2936    2.5481 H   0  0  0  0  0  0  0  0  0  0  0  0
   -6.2551    0.2975    3.5943 H   0  0  0  0  0  0  0  0  0  0  0  0
   -4.1166   -0.6120    2.7595 H   0  0  0  0  0  0  0  0  0  0  0  0
   -2.2375   -0.4943    1.2151 H   0  0  0  0  0  0  0  0  0  0  0  0
   -0.5373    0.8430   -1.8422 H   0  0  0  0  0  0  0  0  0  0  0  0
    0.0545    1.0854    1.1245 H   0  0  0  0  0  0  0  0  0  0  0  0
    0.0858    3.4329    1.0677 H   0  0  0  0  0  0  0  0  0  0  0  0
    0.3401    5.8712    1.2123 H   0  0  0  0  0  0  0  0  0  0  0  0
    1.3583    7.9579    0.3870 H   0  0  0  0  0  0  0  0  0  0  0  0
    2.9211    7.9089   -1.5145 H   0  0  0  0  0  0  0  0  0  0  0  0
    3.4794    5.7754   -2.6091 H   0  0  0  0  0  0  0  0  0  0  0  0
    3.2074    3.3308   -2.7635 H   0  0  0  0  0  0  0  0  0  0  0  0
    2.1845    1.2508   -1.9376 H   0  0  0  0  0  0  0  0  0  0  0  0
    2.8533   -4.2677    3.3468 H   0  0  0  0  0  0  0  0  0  0  0  0
    4.7502   -4.9588    1.8848 H   0  0  0  0  0  0  0  0  0  0  0  0
    5.4961   -3.4630    0.0716 H   0  0  0  0  0  0  0  0  0  0  0  0
    4.3746   -1.3015   -0.2991 H   0  0  0  0  0  0  0  0  0  0  0  0
    0.7779   -2.1970    0.2746 H   0  0  0  0  0  0  0  0  0  0  0  0
    1.9947   -1.3114   -3.4560 H   0  0  0  0  0  0  0  0  0  0  0  0
   -1.2162   -3.1486   -3.6120 H   0  0  0  0  0  0  0  0  0  0  0  0
   -0.5261   -5.4973   -3.9293 H   0  0  0  0  0  0  0  0  0  0  0  0
   -0.0234   -6.9152   -1.9699 H   0  0  0  0  0  0  0  0  0  0  0  0
   -0.2645   -5.9727    0.3151 H   0  0  0  0  0  0  0  0  0  0  0  0
  1  2  2  0  0  0  0
  2  3  4  0  0  0  0
  3  4  4  0  0  0  0
  4  5  2  0  0  0  0
  5  6  4  0  0  0  0
  6  7  2  0  0  0  0
  3  8  4  0  0  0  0
  7  8  4  0  0  0  0
  8  9  4  0  0  0  0
  1 10  4  0  0  0  0
  9 10  2  0  0  0  0
 10 11  1  0  0  0  0
 11 12  1  0  0  0  0
 12 13  1  0  0  0  0
 13 14  2  0  0  0  0
 14 15  4  0  0  0  0
 15 16  4  0  0  0  0
 16 17  2  0  0  0  0
 17 18  4  0  0  0  0
 18 19  2  0  0  0  0
 15 20  4  0  0  0  0
 19 20  4  0  0  0  0
 20 21  4  0  0  0  0
 13 22  4  0  0  0  0
 21 22  2  0  0  0  0
 12 23  1  0  0  0  0
 23 24  1  0  0  0  0
 24 25  1  0  0  0  0
 25 26  4  0  0  0  0
 26 27  1  0  0  0  0
 27 28  4  0  0  0  0
 27 29  4  0  0  0  0
 28 29  1  0  0  0  0
 26 30  4  0  0  0  0
 30 31  4  0  0  0  0
 31 32  4  0  0  0  0
 25 33  4  0  0  0  0
 32 33  4  0  0  0  0
 24 34  2  0  0  0  0
 23 35  1  0  0  0  0
 35 36  1  0  0  0  0
 36 37  1  0  0  0  0
 36 38  2  0  0  0  0
 11 39  1  0  0  0  0
 35 39  1  0  0  0  0
 39 40  4  0  0  0  0
 40 41  1  0  0  0  0
 41 42  4  0  0  0  0
 42 43  4  0  0  0  0
 43 44  4  0  0  0  0
 44 45  4  0  0  0  0
 41 46  4  0  0  0  0
 45 46  4  0  0  0  0
 46 47  1  0  0  0  0
 47 48  4  0  0  0  0
 47 49  4  0  0  0  0
 48 49  1  0  0  0  0
 40 50  2  0  0  0  0
  1 51  1  0  0  0  0
  2 52  1  0  0  0  0
  4 53  1  0  0  0  0
  5 54  1  0  0  0  0
  6 55  1  0  0  0  0
  7 56  1  0  0  0  0
  9 57  1  0  0  0  0
 11 58  1  0  0  0  0
 12 59  1  0  0  0  0
 14 60  1  0  0  0  0
 16 61  1  0  0  0  0
 17 62  1  0  0  0  0
 18 63  1  0  0  0  0
 19 64  1  0  0  0  0
 21 65  1  0  0  0  0
 22 66  1  0  0  0  0
 30 67  1  0  0  0  0
 31 68  1  0  0  0  0
 32 69  1  0  0  0  0
 33 70  1  0  0  0  0
 35 71  1  0  0  0  0
 37 72  1  0  0  0  0
 42 73  1  0  0  0  0
 43 74  1  0  0  0  0
 44 75  1  0  0  0  0
 45 76  1  0  0  0  0
M  END
