
  xtb     03162221573D
 xtb: 6.3.3 (4ae9cef)
 72 78  0     0  0            999 V2000
   -2.0615   -5.4109    0.9966 C   0  0  0  0  0  0  0  0  0  0  0  0
   -2.4306   -4.8795    2.1993 C   0  0  0  0  0  0  0  0  0  0  0  0
   -2.1125   -3.5479    2.4979 C   0  0  0  0  0  0  0  0  0  0  0  0
   -1.4388   -2.7718    1.5954 C   0  0  0  0  0  0  0  0  0  0  0  0
   -1.0470   -3.2859    0.3405 C   0  0  0  0  0  0  0  0  0  0  0  0
   -1.3687   -4.6366    0.0431 C   0  0  0  0  0  0  0  0  0  0  0  0
   -0.9973   -5.1827   -1.2032 C   0  0  0  0  0  0  0  0  0  0  0  0
   -0.3435   -4.4196   -2.1244 C   0  0  0  0  0  0  0  0  0  0  0  0
   -0.0363   -3.0804   -1.8445 C   0  0  0  0  0  0  0  0  0  0  0  0
   -0.3724   -2.5098   -0.6460 C   0  0  0  0  0  0  0  0  0  0  0  0
   -0.0199   -1.0884   -0.3071 C   0  0  0  0  0  0  0  0  0  0  0  0
    0.9201   -0.2961   -1.2365 C   0  0  0  0  0  0  0  0  0  0  0  0
    2.3645   -0.7209   -1.2570 C   0  0  0  0  0  0  0  0  0  0  0  0
    2.8571   -1.1980   -2.4476 C   0  0  0  0  0  0  0  0  0  0  0  0
    4.1690   -1.6662   -2.5745 C   0  0  0  0  0  0  0  0  0  0  0  0
    5.0038   -1.6447   -1.4963 C   0  0  0  0  0  0  0  0  0  0  0  0
    4.5591   -1.1330   -0.2611 C   0  0  0  0  0  0  0  0  0  0  0  0
    3.2236   -0.6579   -0.1246 C   0  0  0  0  0  0  0  0  0  0  0  0
    2.8505   -0.1207    1.1268 C   0  0  0  0  0  0  0  0  0  0  0  0
    3.7291   -0.0684    2.1737 C   0  0  0  0  0  0  0  0  0  0  0  0
    5.0357   -0.5549    2.0381 C   0  0  0  0  0  0  0  0  0  0  0  0
    5.4373   -1.0752    0.8417 C   0  0  0  0  0  0  0  0  0  0  0  0
    0.6843    1.0647   -0.7394 N   0  0  0  0  0  0  0  0  0  0  0  0
    1.5334    2.1029   -0.9513 C   0  0  0  0  0  0  0  0  0  0  0  0
    1.1048    3.3687   -0.2653 C   0  0  0  0  0  0  0  0  0  0  0  0
    1.6856    3.7063    0.9514 C   0  0  0  0  0  0  0  0  0  0  0  0
    1.3134    4.8683    1.6024 C   0  0  0  0  0  0  0  0  0  0  0  0
    0.3632    5.6986    1.0270 C   0  0  0  0  0  0  0  0  0  0  0  0
   -0.1151    7.1439    1.8377 Cl  0  0  0  0  0  0  0  0  0  0  0  0
   -0.2074    5.3846   -0.1982 C   0  0  0  0  0  0  0  0  0  0  0  0
    0.1681    4.2184   -0.8427 C   0  0  0  0  0  0  0  0  0  0  0  0
    2.5486    2.0118   -1.6003 O   0  0  0  0  0  0  0  0  0  0  0  0
   -0.6427    1.1714   -0.1539 C   0  0  0  0  0  0  0  0  0  0  0  0
   -0.6000    1.6083    1.3342 C   0  0  0  0  0  0  0  0  0  0  0  0
   -1.2410    2.7365    1.6421 O   0  0  0  0  0  0  0  0  0  0  0  0
   -0.0702    0.9437    2.1746 O   0  0  0  0  0  0  0  0  0  0  0  0
   -1.1707   -0.1725   -0.2474 N   0  0  0  0  0  0  0  0  0  0  0  0
   -2.4287   -0.4452   -0.7021 C   0  0  0  0  0  0  0  0  0  0  0  0
   -3.3879    0.6952   -0.5223 C   0  0  0  0  0  0  0  0  0  0  0  0
   -3.6932    1.1628    0.7518 C   0  0  0  0  0  0  0  0  0  0  0  0
   -4.6125    2.1829    0.9195 C   0  0  0  0  0  0  0  0  0  0  0  0
   -5.2282    2.7355   -0.1942 C   0  0  0  0  0  0  0  0  0  0  0  0
   -6.3593    4.0237    0.0091 Cl  0  0  0  0  0  0  0  0  0  0  0  0
   -4.9505    2.2617   -1.4684 C   0  0  0  0  0  0  0  0  0  0  0  0
   -4.0378    1.2349   -1.6267 C   0  0  0  0  0  0  0  0  0  0  0  0
   -2.7746   -1.5037   -1.1699 O   0  0  0  0  0  0  0  0  0  0  0  0
   -2.3000   -6.4363    0.7520 H   0  0  0  0  0  0  0  0  0  0  0  0
   -2.9660   -5.4760    2.9234 H   0  0  0  0  0  0  0  0  0  0  0  0
   -2.4056   -3.1334    3.4516 H   0  0  0  0  0  0  0  0  0  0  0  0
   -1.2145   -1.7492    1.8578 H   0  0  0  0  0  0  0  0  0  0  0  0
   -1.2472   -6.2126   -1.4141 H   0  0  0  0  0  0  0  0  0  0  0  0
   -0.0610   -4.8331   -3.0812 H   0  0  0  0  0  0  0  0  0  0  0  0
    0.4724   -2.5078   -2.6016 H   0  0  0  0  0  0  0  0  0  0  0  0
    0.4289   -1.0903    0.6940 H   0  0  0  0  0  0  0  0  0  0  0  0
    0.5301   -0.3434   -2.2641 H   0  0  0  0  0  0  0  0  0  0  0  0
    2.2267   -1.2055   -3.3258 H   0  0  0  0  0  0  0  0  0  0  0  0
    4.5087   -2.0357   -3.5304 H   0  0  0  0  0  0  0  0  0  0  0  0
    6.0204   -2.0020   -1.5748 H   0  0  0  0  0  0  0  0  0  0  0  0
    1.8621    0.2759    1.2790 H   0  0  0  0  0  0  0  0  0  0  0  0
    3.4103    0.3528    3.1159 H   0  0  0  0  0  0  0  0  0  0  0  0
    5.7154   -0.5092    2.8762 H   0  0  0  0  0  0  0  0  0  0  0  0
    6.4441   -1.4470    0.7141 H   0  0  0  0  0  0  0  0  0  0  0  0
    2.4291    3.0550    1.3850 H   0  0  0  0  0  0  0  0  0  0  0  0
    1.7571    5.1304    2.5493 H   0  0  0  0  0  0  0  0  0  0  0  0
   -0.9292    6.0508   -0.6442 H   0  0  0  0  0  0  0  0  0  0  0  0
   -0.2558    3.9789   -1.8078 H   0  0  0  0  0  0  0  0  0  0  0  0
   -1.2753    1.8703   -0.7267 H   0  0  0  0  0  0  0  0  0  0  0  0
   -1.5977    3.2223    0.8853 H   0  0  0  0  0  0  0  0  0  0  0  0
   -3.2266    0.7150    1.6165 H   0  0  0  0  0  0  0  0  0  0  0  0
   -4.8524    2.5448    1.9066 H   0  0  0  0  0  0  0  0  0  0  0  0
   -5.4511    2.6875   -2.3234 H   0  0  0  0  0  0  0  0  0  0  0  0
   -3.8253    0.8439   -2.6101 H   0  0  0  0  0  0  0  0  0  0  0  0
  1  2  2  0  0  0  0
  2  3  4  0  0  0  0
  3  4  2  0  0  0  0
  4  5  4  0  0  0  0
  1  6  4  0  0  0  0
  5  6  4  0  0  0  0
  6  7  4  0  0  0  0
  7  8  2  0  0  0  0
  8  9  4  0  0  0  0
  5 10  4  0  0  0  0
  9 10  2  0  0  0  0
 10 11  1  0  0  0  0
 11 12  1  0  0  0  0
 12 13  1  0  0  0  0
 13 14  2  0  0  0  0
 14 15  4  0  0  0  0
 15 16  2  0  0  0  0
 16 17  4  0  0  0  0
 13 18  4  0  0  0  0
 17 18  4  0  0  0  0
 18 19  4  0  0  0  0
 19 20  2  0  0  0  0
 20 21  4  0  0  0  0
 17 22  4  0  0  0  0
 21 22  2  0  0  0  0
 12 23  1  0  0  0  0
 23 24  4  0  0  0  0
 24 25  1  0  0  0  0
 25 26  4  0  0  0  0
 26 27  4  0  0  0  0
 27 28  4  0  0  0  0
 28 29  1  0  0  0  0
 28 30  4  0  0  0  0
 25 31  4  0  0  0  0
 30 31  4  0  0  0  0
 24 32  2  0  0  0  0
 23 33  1  0  0  0  0
 33 34  1  0  0  0  0
 34 35  1  0  0  0  0
 34 36  2  0  0  0  0
 11 37  1  0  0  0  0
 33 37  1  0  0  0  0
 37 38  1  0  0  0  0
 38 39  1  0  0  0  0
 39 40  4  0  0  0  0
 40 41  4  0  0  0  0
 41 42  4  0  0  0  0
 42 43  1  0  0  0  0
 42 44  4  0  0  0  0
 39 45  4  0  0  0  0
 44 45  4  0  0  0  0
 38 46  2  0  0  0  0
  1 47  1  0  0  0  0
  2 48  1  0  0  0  0
  3 49  1  0  0  0  0
  4 50  1  0  0  0  0
  7 51  1  0  0  0  0
  8 52  1  0  0  0  0
  9 53  1  0  0  0  0
 11 54  1  0  0  0  0
 12 55  1  0  0  0  0
 14 56  1  0  0  0  0
 15 57  1  0  0  0  0
 16 58  1  0  0  0  0
 19 59  1  0  0  0  0
 20 60  1  0  0  0  0
 21 61  1  0  0  0  0
 22 62  1  0  0  0  0
 26 63  1  0  0  0  0
 27 64  1  0  0  0  0
 30 65  1  0  0  0  0
 31 66  1  0  0  0  0
 33 67  1  0  0  0  0
 35 68  1  0  0  0  0
 40 69  1  0  0  0  0
 41 70  1  0  0  0  0
 44 71  1  0  0  0  0
 45 72  1  0  0  0  0
M  END
