72

C      2.028162   -2.272639   -0.089552
C      3.046695   -3.182383   -0.393236
C      3.581930   -3.261434   -1.686407
C      4.596815   -4.177665   -2.007860
C      5.116223   -4.239721   -3.303221
C      4.634616   -3.382163   -4.286584
C      3.627014   -2.465448   -3.979646
C      3.087209   -2.398318   -2.685725
C      2.060219   -1.493599   -2.365332
C      1.501195   -1.427908   -1.075244
C      0.366936   -0.441630   -0.821501
C     -0.689826   -0.888487    0.234799
C     -2.081640   -0.969988   -0.378656
C     -2.688285   -2.228913   -0.534029
C     -3.953949   -2.366170   -1.124859
C     -4.555824   -3.626828   -1.279130
C     -5.814197   -3.747303   -1.870428
C     -6.485630   -2.611644   -2.315399
C     -5.900895   -1.352781   -2.166422
C     -4.635077   -1.213311   -1.573161
C     -4.031183    0.044216   -1.414098
C     -2.769564    0.165555   -0.825800
N     -0.597163    0.112041    1.302839
C     -1.324260   -0.015953    2.472434
C     -1.356618    1.122403    3.421545
C     -1.087732    0.878544    4.771383
C     -1.108704    1.932615    5.686660
C     -1.418286    3.220422    5.250263
Cl    -1.427585    4.521521    6.370269
C     -1.720155    3.462846    3.910093
C     -1.702333    2.408982    2.992820
O     -1.947308   -1.030547    2.768358
C      0.553657    0.984540    1.101393
C      1.747409    0.562960    2.018846
O      2.950417    0.514981    1.410757
O      1.685857    0.326280    3.217249
N      0.865634    0.841177   -0.313371
C      1.278959    1.842141   -1.167332
C      1.669419    3.137975   -0.581180
C      2.943400    3.308702   -0.035718
C      3.285154    4.534396    0.537691
C      2.359556    5.579938    0.545644
Cl     2.784521    7.085491    1.258582
C      1.095109    5.415440   -0.022295
C      0.747444    4.189820   -0.592942
O      1.281799    1.747938   -2.388610
H      1.664871   -2.248441    0.934685
H      3.418488   -3.834621    0.393482
H      4.985619   -4.856875   -1.252000
H      5.897057   -4.956850   -3.541485
H      5.038156   -3.427279   -5.294529
H      3.264568   -1.802227   -4.760769
H      1.687805   -0.820635   -3.140174
H     -0.122745   -0.255918   -1.787638
H     -0.458433   -1.858363    0.688039
H     -2.169041   -3.118959   -0.181971
H     -4.049680   -4.526142   -0.936094
H     -6.268475   -4.728081   -1.983542
H     -7.465294   -2.705257   -2.775432
H     -6.441774   -0.477945   -2.519526
H     -4.542424    0.942596   -1.752705
H     -2.328759    1.154051   -0.726487
H     -0.849690   -0.128818    5.104911
H     -0.883014    1.741102    6.732295
H     -1.976352    4.465990    3.579520
H     -1.972957    2.595670    1.957854
H      0.309666    2.019760    1.341854
H      3.571018    0.216907    2.109647
H      3.670321    2.498795   -0.073766
H      4.270940    4.671109    0.971910
H      0.384587    6.237314   -0.035205
H     -0.233596    4.057030   -1.046757
