
  xtb     03162222313D
 xtb: 6.3.3 (4ae9cef)
 72 78  0     0  0            999 V2000
    1.9308   -2.6020    0.1078 C   0  0  0  0  0  0  0  0  0  0  0  0
    3.0931   -3.3208    0.0549 C   0  0  0  0  0  0  0  0  0  0  0  0
    3.9422   -3.2551   -1.0679 C   0  0  0  0  0  0  0  0  0  0  0  0
    5.1437   -3.9897   -1.1521 C   0  0  0  0  0  0  0  0  0  0  0  0
    5.9381   -3.8999   -2.2602 C   0  0  0  0  0  0  0  0  0  0  0  0
    5.5708   -3.0705   -3.3329 C   0  0  0  0  0  0  0  0  0  0  0  0
    4.4140   -2.3456   -3.2815 C   0  0  0  0  0  0  0  0  0  0  0  0
    3.5698   -2.4187   -2.1529 C   0  0  0  0  0  0  0  0  0  0  0  0
    2.3680   -1.6913   -2.0699 C   0  0  0  0  0  0  0  0  0  0  0  0
    1.5528   -1.7763   -0.9680 C   0  0  0  0  0  0  0  0  0  0  0  0
    0.3182   -0.9057   -0.9490 C   0  0  0  0  0  0  0  0  0  0  0  0
   -0.7465   -1.2272    0.1192 C   0  0  0  0  0  0  0  0  0  0  0  0
   -2.1392   -0.9609   -0.3982 C   0  0  0  0  0  0  0  0  0  0  0  0
   -2.9535   -1.9986   -0.7654 C   0  0  0  0  0  0  0  0  0  0  0  0
   -4.2477   -1.7668   -1.2719 C   0  0  0  0  0  0  0  0  0  0  0  0
   -5.1037   -2.8223   -1.6498 C   0  0  0  0  0  0  0  0  0  0  0  0
   -6.3560   -2.5656   -2.1328 C   0  0  0  0  0  0  0  0  0  0  0  0
   -6.8102   -1.2434   -2.2614 C   0  0  0  0  0  0  0  0  0  0  0  0
   -6.0045   -0.1990   -1.9037 C   0  0  0  0  0  0  0  0  0  0  0  0
   -4.7076   -0.4306   -1.4012 C   0  0  0  0  0  0  0  0  0  0  0  0
   -3.8501    0.6204   -1.0163 C   0  0  0  0  0  0  0  0  0  0  0  0
   -2.6017    0.3630   -0.5286 C   0  0  0  0  0  0  0  0  0  0  0  0
   -0.4138   -0.3099    1.2054 N   0  0  0  0  0  0  0  0  0  0  0  0
   -0.9942   -0.4081    2.4304 C   0  0  0  0  0  0  0  0  0  0  0  0
   -0.6611    0.7154    3.3621 C   0  0  0  0  0  0  0  0  0  0  0  0
   -0.0174    0.4611    4.5653 C   0  0  0  0  0  0  0  0  0  0  0  0
    0.2768    1.4983    5.4319 C   0  0  0  0  0  0  0  0  0  0  0  0
   -0.0907    2.7919    5.0959 C   0  0  0  0  0  0  0  0  0  0  0  0
    0.2837    4.0933    6.1680 Cl  0  0  0  0  0  0  0  0  0  0  0  0
   -0.7616    3.0577    3.9119 C   0  0  0  0  0  0  0  0  0  0  0  0
   -1.0455    2.0156    3.0488 C   0  0  0  0  0  0  0  0  0  0  0  0
   -1.7508   -1.3104    2.7118 O   0  0  0  0  0  0  0  0  0  0  0  0
    0.6700    0.5661    0.8218 C   0  0  0  0  0  0  0  0  0  0  0  0
    1.9910    0.0886    1.4650 C   0  0  0  0  0  0  0  0  0  0  0  0
    3.0531    0.4882    0.7726 O   0  0  0  0  0  0  0  0  0  0  0  0
    2.0494   -0.5289    2.4889 O   0  0  0  0  0  0  0  0  0  0  0  0
    0.7017    0.4651   -0.6075 N   0  0  0  0  0  0  0  0  0  0  0  0
    0.5445    1.4783   -1.5079 C   0  0  0  0  0  0  0  0  0  0  0  0
    0.6118    2.8592   -0.9424 C   0  0  0  0  0  0  0  0  0  0  0  0
    1.6971    3.3125   -0.1996 C   0  0  0  0  0  0  0  0  0  0  0  0
    1.7011    4.5961    0.3152 C   0  0  0  0  0  0  0  0  0  0  0  0
    0.6134    5.4266    0.0889 C   0  0  0  0  0  0  0  0  0  0  0  0
    0.6052    7.0186    0.7566 Cl  0  0  0  0  0  0  0  0  0  0  0  0
   -0.4637    4.9961   -0.6715 C   0  0  0  0  0  0  0  0  0  0  0  0
   -0.4555    3.7160   -1.1931 C   0  0  0  0  0  0  0  0  0  0  0  0
    0.3455    1.2589   -2.6828 O   0  0  0  0  0  0  0  0  0  0  0  0
    1.3108   -2.6731    0.9883 H   0  0  0  0  0  0  0  0  0  0  0  0
    3.3751   -3.9533    0.8844 H   0  0  0  0  0  0  0  0  0  0  0  0
    5.4215   -4.6272   -0.3247 H   0  0  0  0  0  0  0  0  0  0  0  0
    6.8552   -4.4672   -2.3209 H   0  0  0  0  0  0  0  0  0  0  0  0
    6.2123   -3.0133   -4.1999 H   0  0  0  0  0  0  0  0  0  0  0  0
    4.1244   -1.7063   -4.1028 H   0  0  0  0  0  0  0  0  0  0  0  0
    2.0875   -1.0497   -2.8931 H   0  0  0  0  0  0  0  0  0  0  0  0
   -0.1215   -0.8809   -1.9517 H   0  0  0  0  0  0  0  0  0  0  0  0
   -0.6906   -2.2625    0.4659 H   0  0  0  0  0  0  0  0  0  0  0  0
   -2.6112   -3.0187   -0.6643 H   0  0  0  0  0  0  0  0  0  0  0  0
   -4.7502   -3.8383   -1.5476 H   0  0  0  0  0  0  0  0  0  0  0  0
   -7.0072   -3.3784   -2.4192 H   0  0  0  0  0  0  0  0  0  0  0  0
   -7.8031   -1.0599   -2.6449 H   0  0  0  0  0  0  0  0  0  0  0  0
   -6.3500    0.8206   -1.9996 H   0  0  0  0  0  0  0  0  0  0  0  0
   -4.2009    1.6383   -1.1113 H   0  0  0  0  0  0  0  0  0  0  0  0
   -1.9599    1.1810   -0.2328 H   0  0  0  0  0  0  0  0  0  0  0  0
    0.2631   -0.5504    4.8110 H   0  0  0  0  0  0  0  0  0  0  0  0
    0.7854    1.3070    6.3635 H   0  0  0  0  0  0  0  0  0  0  0  0
   -1.0585    4.0666    3.6715 H   0  0  0  0  0  0  0  0  0  0  0  0
   -1.5909    2.2152    2.1368 H   0  0  0  0  0  0  0  0  0  0  0  0
    0.5133    1.6000    1.1568 H   0  0  0  0  0  0  0  0  0  0  0  0
    3.8743    0.1671    1.1812 H   0  0  0  0  0  0  0  0  0  0  0  0
    2.5449    2.6643   -0.0395 H   0  0  0  0  0  0  0  0  0  0  0  0
    2.5407    4.9525    0.8907 H   0  0  0  0  0  0  0  0  0  0  0  0
   -1.2951    5.6583   -0.8541 H   0  0  0  0  0  0  0  0  0  0  0  0
   -1.2801    3.3685   -1.7974 H   0  0  0  0  0  0  0  0  0  0  0  0
  1  2  2  0  0  0  0
  2  3  4  0  0  0  0
  3  4  4  0  0  0  0
  4  5  2  0  0  0  0
  5  6  4  0  0  0  0
  6  7  2  0  0  0  0
  3  8  4  0  0  0  0
  7  8  4  0  0  0  0
  8  9  4  0  0  0  0
  1 10  4  0  0  0  0
  9 10  2  0  0  0  0
 10 11  1  0  0  0  0
 11 12  1  0  0  0  0
 12 13  1  0  0  0  0
 13 14  2  0  0  0  0
 14 15  4  0  0  0  0
 15 16  4  0  0  0  0
 16 17  2  0  0  0  0
 17 18  4  0  0  0  0
 18 19  2  0  0  0  0
 15 20  4  0  0  0  0
 19 20  4  0  0  0  0
 20 21  4  0  0  0  0
 13 22  4  0  0  0  0
 21 22  2  0  0  0  0
 12 23  1  0  0  0  0
 23 24  4  0  0  0  0
 24 25  1  0  0  0  0
 25 26  4  0  0  0  0
 26 27  4  0  0  0  0
 27 28  4  0  0  0  0
 28 29  1  0  0  0  0
 28 30  4  0  0  0  0
 25 31  4  0  0  0  0
 30 31  4  0  0  0  0
 24 32  2  0  0  0  0
 23 33  1  0  0  0  0
 33 34  1  0  0  0  0
 34 35  1  0  0  0  0
 34 36  2  0  0  0  0
 11 37  1  0  0  0  0
 33 37  1  0  0  0  0
 37 38  1  0  0  0  0
 38 39  1  0  0  0  0
 39 40  4  0  0  0  0
 40 41  4  0  0  0  0
 41 42  4  0  0  0  0
 42 43  1  0  0  0  0
 42 44  4  0  0  0  0
 39 45  4  0  0  0  0
 44 45  4  0  0  0  0
 38 46  2  0  0  0  0
  1 47  1  0  0  0  0
  2 48  1  0  0  0  0
  4 49  1  0  0  0  0
  5 50  1  0  0  0  0
  6 51  1  0  0  0  0
  7 52  1  0  0  0  0
  9 53  1  0  0  0  0
 11 54  1  0  0  0  0
 12 55  1  0  0  0  0
 14 56  1  0  0  0  0
 16 57  1  0  0  0  0
 17 58  1  0  0  0  0
 18 59  1  0  0  0  0
 19 60  1  0  0  0  0
 21 61  1  0  0  0  0
 22 62  1  0  0  0  0
 26 63  1  0  0  0  0
 27 64  1  0  0  0  0
 30 65  1  0  0  0  0
 31 66  1  0  0  0  0
 33 67  1  0  0  0  0
 35 68  1  0  0  0  0
 40 69  1  0  0  0  0
 41 70  1  0  0  0  0
 44 71  1  0  0  0  0
 45 72  1  0  0  0  0
M  END
