70

C     -3.139493   -1.526441    0.720454
O     -3.066098   -0.639831    1.765245
C     -4.294494   -0.157856    2.291807
C     -4.290018   -2.257685    0.401438
C     -4.285959   -3.150418   -0.669516
C     -3.133613   -3.318318   -1.426264
C     -1.979533   -2.600594   -1.109908
C     -1.955485   -1.701516   -0.030607
C     -0.708179   -0.908964    0.325940
C      0.698402   -1.325399   -0.186929
C      1.278950   -2.508546    0.572146
C      1.590021   -2.414638    1.941643
C      2.099547   -3.509622    2.643839
C      2.301901   -4.722178    1.993347
C      2.009268   -4.835790    0.636394
C      1.523735   -3.731332   -0.072316
O      1.222236   -3.855747   -1.404169
C      2.398861   -4.101288   -2.177844
N      1.477043   -0.082381   -0.018589
C      2.781568    0.016662   -0.466267
C      3.437754    1.307356   -0.303601
C      4.334513    1.542521    0.722491
S      4.968254    3.127900    0.687678
C      4.085973    3.505872   -0.730931
C      3.318953    2.445718   -1.166419
O      2.506177    2.428866   -2.256523
C      2.588539    3.566055   -3.107050
O      3.410565   -0.935503   -0.918164
C      0.586676    1.052022    0.235564
C      0.784669    1.569808    1.680707
O      1.111817    2.881672    1.733974
O      0.703374    0.929719    2.719893
N     -0.760282    0.533260    0.029691
C     -1.319253    0.973886   -1.169017
C     -1.716342    2.388124   -1.210809
C     -1.877554    3.043306   -2.421450
S     -2.317948    4.680807   -2.246728
C     -2.341007    4.543165   -0.544022
C     -2.026214    3.269491   -0.115869
O     -1.980347    2.862115    1.180389
C     -2.655598    3.692648    2.114236
O     -1.442548    0.255040   -2.157711
H     -4.063760    0.655828    2.985591
H     -4.809572   -0.938718    2.858877
H     -4.936174    0.250019    1.504014
H     -5.204036   -2.161279    0.977012
H     -5.182884   -3.712426   -0.914453
H     -3.127726   -4.004190   -2.269057
H     -1.107311   -2.743501   -1.740928
H     -0.661700   -0.951668    1.424047
H      0.687378   -1.507275   -1.267455
H      1.435509   -1.483359    2.481618
H      2.328332   -3.414168    3.701949
H      2.684406   -5.578678    2.541320
H      2.149988   -5.789323    0.136386
H      2.673610   -5.159848   -2.130044
H      2.169450   -3.860467   -3.220003
H      3.239936   -3.473566   -1.862479
H      4.641230    0.851328    1.497367
H      4.191376    4.492619   -1.158385
H      2.211790    4.460482   -2.600248
H      1.950461    3.380358   -3.977344
H      3.611942    3.717897   -3.470451
H      0.801582    1.864829   -0.460319
H      1.204743    3.057211    2.693719
H     -1.741486    2.623768   -3.410331
H     -2.593797    5.414792    0.041799
H     -2.134430    4.646998    2.240524
H     -3.701283    3.848796    1.829493
H     -2.646403    3.181576    3.081604
