
  xtb     03162221233D
 xtb: 6.3.3 (4ae9cef)
 70 74  0     0  0            999 V2000
   -3.1446   -1.5891    0.4052 C   0  0  0  0  0  0  0  0  0  0  0  0
   -3.1730   -0.5493    1.2831 O   0  0  0  0  0  0  0  0  0  0  0  0
   -4.4168   -0.1074    1.7633 C   0  0  0  0  0  0  0  0  0  0  0  0
   -4.2383   -2.3750    0.0759 C   0  0  0  0  0  0  0  0  0  0  0  0
   -4.0936   -3.4255   -0.8161 C   0  0  0  0  0  0  0  0  0  0  0  0
   -2.8649   -3.6968   -1.3814 C   0  0  0  0  0  0  0  0  0  0  0  0
   -1.7694   -2.9070   -1.0648 C   0  0  0  0  0  0  0  0  0  0  0  0
   -1.8940   -1.8517   -0.1827 C   0  0  0  0  0  0  0  0  0  0  0  0
   -0.7536   -0.9719    0.2403 C   0  0  0  0  0  0  0  0  0  0  0  0
    0.6588   -1.3133   -0.2657 C   0  0  0  0  0  0  0  0  0  0  0  0
    1.3366   -2.4038    0.5162 C   0  0  0  0  0  0  0  0  0  0  0  0
    1.5994   -2.2392    1.8660 C   0  0  0  0  0  0  0  0  0  0  0  0
    2.2451   -3.2251    2.5915 C   0  0  0  0  0  0  0  0  0  0  0  0
    2.6357   -4.3887    1.9581 C   0  0  0  0  0  0  0  0  0  0  0  0
    2.3836   -4.5720    0.6096 C   0  0  0  0  0  0  0  0  0  0  0  0
    1.7356   -3.5860   -0.1239 C   0  0  0  0  0  0  0  0  0  0  0  0
    1.4412   -3.6918   -1.4510 O   0  0  0  0  0  0  0  0  0  0  0  0
    1.9381   -4.7954   -2.1679 C   0  0  0  0  0  0  0  0  0  0  0  0
    1.3441   -0.0256   -0.1170 N   0  0  0  0  0  0  0  0  0  0  0  0
    2.6785    0.1022   -0.2932 C   0  0  0  0  0  0  0  0  0  0  0  0
    3.2234    1.4796   -0.0879 C   0  0  0  0  0  0  0  0  0  0  0  0
    4.1210    1.7594    0.8927 C   0  0  0  0  0  0  0  0  0  0  0  0
    4.6425    3.3921    0.8625 S   0  0  0  0  0  0  0  0  0  0  0  0
    3.6653    3.7191   -0.5165 C   0  0  0  0  0  0  0  0  0  0  0  0
    2.9674    2.6199   -0.9154 C   0  0  0  0  0  0  0  0  0  0  0  0
    2.1041    2.5221   -1.9616 O   0  0  0  0  0  0  0  0  0  0  0  0
    1.9818    3.6537   -2.7916 C   0  0  0  0  0  0  0  0  0  0  0  0
    3.4003   -0.8362   -0.5558 O   0  0  0  0  0  0  0  0  0  0  0  0
    0.3914    1.0449    0.1363 C   0  0  0  0  0  0  0  0  0  0  0  0
    0.5371    1.4995    1.5981 C   0  0  0  0  0  0  0  0  0  0  0  0
    1.1221    2.6993    1.6682 O   0  0  0  0  0  0  0  0  0  0  0  0
    0.2537    0.8554    2.5676 O   0  0  0  0  0  0  0  0  0  0  0  0
   -0.8786    0.4365   -0.1451 N   0  0  0  0  0  0  0  0  0  0  0  0
   -1.7905    0.9683   -0.9961 C   0  0  0  0  0  0  0  0  0  0  0  0
   -1.6609    2.4487   -1.1557 C   0  0  0  0  0  0  0  0  0  0  0  0
   -1.6470    3.0855   -2.3555 C   0  0  0  0  0  0  0  0  0  0  0  0
   -1.5775    4.7909   -2.1926 S   0  0  0  0  0  0  0  0  0  0  0  0
   -1.5994    4.6684   -0.4723 C   0  0  0  0  0  0  0  0  0  0  0  0
   -1.6437    3.3716   -0.0590 C   0  0  0  0  0  0  0  0  0  0  0  0
   -1.6876    2.9003    1.2120 O   0  0  0  0  0  0  0  0  0  0  0  0
   -1.7915    3.8547    2.2415 C   0  0  0  0  0  0  0  0  0  0  0  0
   -2.6628    0.3480   -1.5631 O   0  0  0  0  0  0  0  0  0  0  0  0
   -4.2012    0.7795    2.3578 H   0  0  0  0  0  0  0  0  0  0  0  0
   -4.8978   -0.8595    2.3985 H   0  0  0  0  0  0  0  0  0  0  0  0
   -5.0875    0.1606    0.9410 H   0  0  0  0  0  0  0  0  0  0  0  0
   -5.2079   -2.1785    0.5056 H   0  0  0  0  0  0  0  0  0  0  0  0
   -4.9536   -4.0300   -1.0646 H   0  0  0  0  0  0  0  0  0  0  0  0
   -2.7532   -4.5164   -2.0749 H   0  0  0  0  0  0  0  0  0  0  0  0
   -0.8150   -3.1269   -1.5132 H   0  0  0  0  0  0  0  0  0  0  0  0
   -0.7386   -0.9712    1.3399 H   0  0  0  0  0  0  0  0  0  0  0  0
    0.6488   -1.5739   -1.3290 H   0  0  0  0  0  0  0  0  0  0  0  0
    1.3040   -1.3225    2.3550 H   0  0  0  0  0  0  0  0  0  0  0  0
    2.4458   -3.0809    3.6421 H   0  0  0  0  0  0  0  0  0  0  0  0
    3.1456   -5.1644    2.5104 H   0  0  0  0  0  0  0  0  0  0  0  0
    2.7035   -5.4872    0.1372 H   0  0  0  0  0  0  0  0  0  0  0  0
    1.4930   -5.7342   -1.8211 H   0  0  0  0  0  0  0  0  0  0  0  0
    1.6508   -4.6245   -3.2047 H   0  0  0  0  0  0  0  0  0  0  0  0
    3.0281   -4.8575   -2.1008 H   0  0  0  0  0  0  0  0  0  0  0  0
    4.4973    1.0872    1.6373 H   0  0  0  0  0  0  0  0  0  0  0  0
    3.6772    4.7020   -0.9402 H   0  0  0  0  0  0  0  0  0  0  0  0
    1.5692    4.5063   -2.2426 H   0  0  0  0  0  0  0  0  0  0  0  0
    1.2961    3.3680   -3.5867 H   0  0  0  0  0  0  0  0  0  0  0  0
    2.9476    3.9334   -3.2222 H   0  0  0  0  0  0  0  0  0  0  0  0
    0.5717    1.9044   -0.5156 H   0  0  0  0  0  0  0  0  0  0  0  0
    1.2692    2.9524    2.5950 H   0  0  0  0  0  0  0  0  0  0  0  0
   -1.6670    2.6363   -3.3277 H   0  0  0  0  0  0  0  0  0  0  0  0
   -1.5870    5.5663    0.1106 H   0  0  0  0  0  0  0  0  0  0  0  0
   -0.9293    4.5302    2.2456 H   0  0  0  0  0  0  0  0  0  0  0  0
   -2.7078    4.4448    2.1414 H   0  0  0  0  0  0  0  0  0  0  0  0
   -1.8212    3.2870    3.1700 H   0  0  0  0  0  0  0  0  0  0  0  0
  1  2  1  0  0  0  0
  2  3  1  0  0  0  0
  1  4  4  0  0  0  0
  4  5  4  0  0  0  0
  5  6  4  0  0  0  0
  6  7  4  0  0  0  0
  1  8  4  0  0  0  0
  7  8  4  0  0  0  0
  8  9  1  0  0  0  0
  9 10  1  0  0  0  0
 10 11  1  0  0  0  0
 11 12  4  0  0  0  0
 12 13  4  0  0  0  0
 13 14  4  0  0  0  0
 14 15  4  0  0  0  0
 11 16  4  0  0  0  0
 15 16  4  0  0  0  0
 16 17  1  0  0  0  0
 17 18  1  0  0  0  0
 10 19  1  0  0  0  0
 19 20  4  0  0  0  0
 20 21  1  0  0  0  0
 21 22  2  0  0  0  0
 22 23  1  0  0  0  0
 23 24  1  0  0  0  0
 21 25  1  0  0  0  0
 24 25  2  0  0  0  0
 25 26  1  0  0  0  0
 26 27  1  0  0  0  0
 20 28  2  0  0  0  0
 19 29  1  0  0  0  0
 29 30  1  0  0  0  0
 30 31  1  0  0  0  0
 30 32  2  0  0  0  0
  9 33  1  0  0  0  0
 29 33  1  0  0  0  0
 33 34  4  0  0  0  0
 34 35  1  0  0  0  0
 35 36  2  0  0  0  0
 36 37  1  0  0  0  0
 37 38  1  0  0  0  0
 35 39  1  0  0  0  0
 38 39  2  0  0  0  0
 39 40  1  0  0  0  0
 40 41  1  0  0  0  0
 34 42  2  0  0  0  0
  3 43  1  0  0  0  0
  3 44  1  0  0  0  0
  3 45  1  0  0  0  0
  4 46  1  0  0  0  0
  5 47  1  0  0  0  0
  6 48  1  0  0  0  0
  7 49  1  0  0  0  0
  9 50  1  0  0  0  0
 10 51  1  0  0  0  0
 12 52  1  0  0  0  0
 13 53  1  0  0  0  0
 14 54  1  0  0  0  0
 15 55  1  0  0  0  0
 18 56  1  0  0  0  0
 18 57  1  0  0  0  0
 18 58  1  0  0  0  0
 22 59  1  0  0  0  0
 24 60  1  0  0  0  0
 27 61  1  0  0  0  0
 27 62  1  0  0  0  0
 27 63  1  0  0  0  0
 29 64  1  0  0  0  0
 31 65  1  0  0  0  0
 36 66  1  0  0  0  0
 38 67  1  0  0  0  0
 41 68  1  0  0  0  0
 41 69  1  0  0  0  0
 41 70  1  0  0  0  0
M  END
