74

C      1.305147    3.672748   -0.711647
C      0.585548    4.401848    0.409919
F      0.929320    5.717915    0.525810
F      0.766422    3.867319    1.647399
F     -0.766050    4.407765    0.211574
C      2.015731    4.454655   -1.647913
C      2.680446    3.875663   -2.724430
C      2.650213    2.496217   -2.897234
C      1.959897    1.702725   -1.979532
C      1.262138    2.262718   -0.889395
C      0.537499    1.349959    0.094695
C     -0.539295    0.412639   -0.560950
C     -1.870083    1.075224   -0.887477
C     -2.482220    0.919538   -2.165110
C     -1.855261    0.091640   -3.274909
F     -1.592695   -1.194524   -2.895698
F     -2.626348   -0.009166   -4.398220
F     -0.665480    0.610562   -3.692138
C     -3.702590    1.575074   -2.433592
C     -4.315591    2.376484   -1.476030
C     -3.724710    2.535718   -0.227469
C     -2.518157    1.889247    0.065396
N     -0.518534   -0.744323    0.349748
C     -1.317860   -1.871609    0.363257
C     -2.772457   -1.736412    0.186308
C     -3.506206   -1.016734    1.136085
C     -4.886341   -0.913521    0.998303
C     -5.525551   -1.540270   -0.075464
C     -4.797503   -2.294797   -1.002810
O     -5.537100   -2.849073   -2.007014
C     -4.929988   -3.913914   -2.742527
C     -3.414389   -2.414090   -0.858051
O     -0.879737   -2.988047    0.622547
C      0.864363   -0.938823    0.774556
C      1.734586   -1.812436   -0.189674
O      1.148959   -2.148019   -1.368322
O      2.901840   -2.138856   -0.015213
N      1.425485    0.413987    0.804347
C      2.430601    0.865649    1.640026
C      3.124865   -0.096599    2.507667
C      4.355734   -0.618349    2.104010
C      5.031137   -1.528642    2.923273
O      6.183578   -2.019525    2.390611
C      6.941866   -2.910863    3.197023
C      4.481574   -1.873799    4.163082
C      3.268755   -1.309776    4.580029
C      2.588076   -0.415035    3.755614
O      2.783196    2.037690    1.720416
H      2.065398    5.541706   -1.526852
H      3.216165    4.504735   -3.426251
H      3.171312    2.037222   -3.732036
H      1.985014    0.622834   -2.139951
H      0.064300    1.920860    0.897052
H     -0.123107    0.022369   -1.491227
H     -4.181837    1.466191   -3.409316
H     -5.256449    2.872552   -1.703332
H     -4.202494    3.160113    0.526845
H     -2.099242    2.028693    1.064723
H     -3.000051   -0.515983    1.963666
H     -5.465808   -0.344341    1.723580
H     -6.604277   -1.441969   -0.183905
H     -4.494711   -4.660713   -2.074958
H     -4.198814   -3.521113   -3.454719
H     -5.733605   -4.411007   -3.305591
H     -2.819103   -2.993676   -1.554062
H      0.866333   -1.416611    1.758721
H      1.837470   -2.710707   -1.771353
H      4.778158   -0.339091    1.138167
H      7.223880   -2.435040    4.145752
H      7.865073   -3.150091    2.659049
H      6.401526   -3.845958    3.367860
H      4.967515   -2.586171    4.825250
H      2.865062   -1.558064    5.560126
H      1.659462    0.037474    4.091881
