
  xtb     03162223203D
 xtb: 6.3.3 (4ae9cef)
 74 78  0     0  0            999 V2000
    1.0564    3.1906   -1.5235 C   0  0  0  0  0  0  0  0  0  0  0  0
    0.2675    4.2506   -0.8079 C   0  0  0  0  0  0  0  0  0  0  0  0
    0.3073    5.4393   -1.4198 F   0  0  0  0  0  0  0  0  0  0  0  0
    0.6679    4.4716    0.4556 F   0  0  0  0  0  0  0  0  0  0  0  0
   -1.0494    3.9371   -0.7132 F   0  0  0  0  0  0  0  0  0  0  0  0
    1.7557    3.5405   -2.6718 C   0  0  0  0  0  0  0  0  0  0  0  0
    2.4728    2.5865   -3.3676 C   0  0  0  0  0  0  0  0  0  0  0  0
    2.4858    1.2753   -2.9240 C   0  0  0  0  0  0  0  0  0  0  0  0
    1.7886    0.9253   -1.7846 C   0  0  0  0  0  0  0  0  0  0  0  0
    1.0755    1.8752   -1.0617 C   0  0  0  0  0  0  0  0  0  0  0  0
    0.3423    1.4252    0.1760 C   0  0  0  0  0  0  0  0  0  0  0  0
   -0.8365    0.4789   -0.1547 C   0  0  0  0  0  0  0  0  0  0  0  0
   -2.1655    1.1861   -0.0647 C   0  0  0  0  0  0  0  0  0  0  0  0
   -2.9253    1.5442   -1.1796 C   0  0  0  0  0  0  0  0  0  0  0  0
   -2.4329    1.3170   -2.5824 C   0  0  0  0  0  0  0  0  0  0  0  0
   -2.1449    0.0295   -2.8674 F   0  0  0  0  0  0  0  0  0  0  0  0
   -3.3132    1.6972   -3.5132 F   0  0  0  0  0  0  0  0  0  0  0  0
   -1.2977    1.9944   -2.8465 F   0  0  0  0  0  0  0  0  0  0  0  0
   -4.1483    2.1851   -1.0160 C   0  0  0  0  0  0  0  0  0  0  0  0
   -4.6168    2.4874    0.2477 C   0  0  0  0  0  0  0  0  0  0  0  0
   -3.8555    2.1660    1.3575 C   0  0  0  0  0  0  0  0  0  0  0  0
   -2.6452    1.5211    1.1967 C   0  0  0  0  0  0  0  0  0  0  0  0
   -0.7116   -0.5751    0.8401 N   0  0  0  0  0  0  0  0  0  0  0  0
   -1.4050   -1.7420    0.8690 C   0  0  0  0  0  0  0  0  0  0  0  0
   -2.6742   -1.7613    0.0834 C   0  0  0  0  0  0  0  0  0  0  0  0
   -3.8479   -1.3297    0.6833 C   0  0  0  0  0  0  0  0  0  0  0  0
   -5.0294   -1.3612   -0.0389 C   0  0  0  0  0  0  0  0  0  0  0  0
   -5.0427   -1.8299   -1.3349 C   0  0  0  0  0  0  0  0  0  0  0  0
   -3.8692   -2.2968   -1.9320 C   0  0  0  0  0  0  0  0  0  0  0  0
   -3.9939   -2.7556   -3.1993 O   0  0  0  0  0  0  0  0  0  0  0  0
   -2.8429   -3.2094   -3.8739 C   0  0  0  0  0  0  0  0  0  0  0  0
   -2.6789   -2.2612   -1.2111 C   0  0  0  0  0  0  0  0  0  0  0  0
   -1.0095   -2.6747    1.5401 O   0  0  0  0  0  0  0  0  0  0  0  0
    0.5002   -0.4731    1.6321 C   0  0  0  0  0  0  0  0  0  0  0  0
    1.2703   -1.8130    1.6121 C   0  0  0  0  0  0  0  0  0  0  0  0
    1.5394   -2.1822    0.3573 O   0  0  0  0  0  0  0  0  0  0  0  0
    1.6437   -2.3993    2.5841 O   0  0  0  0  0  0  0  0  0  0  0  0
    1.2142    0.6191    1.0236 N   0  0  0  0  0  0  0  0  0  0  0  0
    2.4820    1.0350    1.3051 C   0  0  0  0  0  0  0  0  0  0  0  0
    3.2386    0.1242    2.2139 C   0  0  0  0  0  0  0  0  0  0  0  0
    4.1451   -0.7622    1.6616 C   0  0  0  0  0  0  0  0  0  0  0  0
    4.8548   -1.6419    2.4788 C   0  0  0  0  0  0  0  0  0  0  0  0
    5.6889   -2.5005    1.8329 O   0  0  0  0  0  0  0  0  0  0  0  0
    6.4351   -3.4163    2.5997 C   0  0  0  0  0  0  0  0  0  0  0  0
    4.6643   -1.5940    3.8551 C   0  0  0  0  0  0  0  0  0  0  0  0
    3.7780   -0.6795    4.3980 C   0  0  0  0  0  0  0  0  0  0  0  0
    3.0590    0.1793    3.5909 C   0  0  0  0  0  0  0  0  0  0  0  0
    2.9431    2.0444    0.8210 O   0  0  0  0  0  0  0  0  0  0  0  0
    1.7374    4.5625   -3.0163 H   0  0  0  0  0  0  0  0  0  0  0  0
    3.0190    2.8681   -4.2542 H   0  0  0  0  0  0  0  0  0  0  0  0
    3.0418    0.5248   -3.4653 H   0  0  0  0  0  0  0  0  0  0  0  0
    1.8075   -0.0956   -1.4306 H   0  0  0  0  0  0  0  0  0  0  0  0
   -0.0212    2.2803    0.7568 H   0  0  0  0  0  0  0  0  0  0  0  0
   -0.6868    0.0465   -1.1492 H   0  0  0  0  0  0  0  0  0  0  0  0
   -4.7290    2.4536   -1.8841 H   0  0  0  0  0  0  0  0  0  0  0  0
   -5.5667    2.9852    0.3616 H   0  0  0  0  0  0  0  0  0  0  0  0
   -4.2036    2.4173    2.3476 H   0  0  0  0  0  0  0  0  0  0  0  0
   -2.0549    1.2609    2.0624 H   0  0  0  0  0  0  0  0  0  0  0  0
   -3.8364   -0.9789    1.7030 H   0  0  0  0  0  0  0  0  0  0  0  0
   -5.9455   -1.0178    0.4168 H   0  0  0  0  0  0  0  0  0  0  0  0
   -5.9533   -1.8587   -1.9115 H   0  0  0  0  0  0  0  0  0  0  0  0
   -2.3952   -4.0699   -3.3670 H   0  0  0  0  0  0  0  0  0  0  0  0
   -2.1011   -2.4120   -3.9726 H   0  0  0  0  0  0  0  0  0  0  0  0
   -3.1842   -3.5117   -4.8625 H   0  0  0  0  0  0  0  0  0  0  0  0
   -1.7541   -2.6110   -1.6409 H   0  0  0  0  0  0  0  0  0  0  0  0
    0.2508   -0.2725    2.6901 H   0  0  0  0  0  0  0  0  0  0  0  0
    2.0092   -3.0314    0.3585 H   0  0  0  0  0  0  0  0  0  0  0  0
    4.3044   -0.7967    0.5948 H   0  0  0  0  0  0  0  0  0  0  0  0
    7.1108   -2.9038    3.2913 H   0  0  0  0  0  0  0  0  0  0  0  0
    7.0217   -3.9896    1.8834 H   0  0  0  0  0  0  0  0  0  0  0  0
    5.7833   -4.0938    3.1600 H   0  0  0  0  0  0  0  0  0  0  0  0
    5.1953   -2.2633    4.5126 H   0  0  0  0  0  0  0  0  0  0  0  0
    3.6429   -0.6489    5.4685 H   0  0  0  0  0  0  0  0  0  0  0  0
    2.3681    0.8889    4.0198 H   0  0  0  0  0  0  0  0  0  0  0  0
  1  2  1  0  0  0  0
  2  3  1  0  0  0  0
  2  4  1  0  0  0  0
  2  5  1  0  0  0  0
  1  6  4  0  0  0  0
  6  7  4  0  0  0  0
  7  8  4  0  0  0  0
  8  9  4  0  0  0  0
  1 10  4  0  0  0  0
  9 10  4  0  0  0  0
 10 11  1  0  0  0  0
 11 12  1  0  0  0  0
 12 13  1  0  0  0  0
 13 14  4  0  0  0  0
 14 15  1  0  0  0  0
 15 16  1  0  0  0  0
 15 17  1  0  0  0  0
 15 18  1  0  0  0  0
 14 19  4  0  0  0  0
 19 20  4  0  0  0  0
 20 21  4  0  0  0  0
 13 22  4  0  0  0  0
 21 22  4  0  0  0  0
 12 23  1  0  0  0  0
 23 24  4  0  0  0  0
 24 25  1  0  0  0  0
 25 26  4  0  0  0  0
 26 27  4  0  0  0  0
 27 28  4  0  0  0  0
 28 29  4  0  0  0  0
 29 30  1  0  0  0  0
 30 31  1  0  0  0  0
 25 32  4  0  0  0  0
 29 32  4  0  0  0  0
 24 33  2  0  0  0  0
 23 34  1  0  0  0  0
 34 35  1  0  0  0  0
 35 36  1  0  0  0  0
 35 37  2  0  0  0  0
 11 38  1  0  0  0  0
 34 38  1  0  0  0  0
 38 39  1  0  0  0  0
 39 40  1  0  0  0  0
 40 41  4  0  0  0  0
 41 42  4  0  0  0  0
 42 43  1  0  0  0  0
 43 44  1  0  0  0  0
 42 45  4  0  0  0  0
 45 46  4  0  0  0  0
 40 47  4  0  0  0  0
 46 47  4  0  0  0  0
 39 48  2  0  0  0  0
  6 49  1  0  0  0  0
  7 50  1  0  0  0  0
  8 51  1  0  0  0  0
  9 52  1  0  0  0  0
 11 53  1  0  0  0  0
 12 54  1  0  0  0  0
 19 55  1  0  0  0  0
 20 56  1  0  0  0  0
 21 57  1  0  0  0  0
 22 58  1  0  0  0  0
 26 59  1  0  0  0  0
 27 60  1  0  0  0  0
 28 61  1  0  0  0  0
 31 62  1  0  0  0  0
 31 63  1  0  0  0  0
 31 64  1  0  0  0  0
 32 65  1  0  0  0  0
 34 66  1  0  0  0  0
 36 67  1  0  0  0  0
 41 68  1  0  0  0  0
 44 69  1  0  0  0  0
 44 70  1  0  0  0  0
 44 71  1  0  0  0  0
 45 72  1  0  0  0  0
 46 73  1  0  0  0  0
 47 74  1  0  0  0  0
M  END
