24

C     -4.043300    0.315401    1.091607
O     -3.241520   -0.390728    0.156637
C     -1.914730   -0.057235    0.084585
C     -1.288726    0.919167    0.862853
C      0.078166    1.181664    0.708806
C      0.842079    0.476432   -0.230035
C      2.318408    0.753342   -0.387598
C      3.168236   -0.276100    0.302189
C      4.083949   -1.036714   -0.312305
C      0.217766   -0.508583   -1.006800
C     -1.145571   -0.766923   -0.847307
O     -1.745843   -1.732130   -1.613177
H     -4.074402    1.384756    0.858030
H     -5.064483   -0.070514    1.015701
H     -3.699017    0.143780    2.116807
H     -1.834369    1.495312    1.602290
H      0.541800    1.944330    1.331271
H      2.555965    0.814404   -1.457402
H      2.557639    1.740251    0.027754
H      3.019002   -0.394568    1.373823
H      4.666252   -1.762810    0.247153
H      4.273759   -0.956095   -1.377986
H      0.804848   -1.068824   -1.728917
H     -1.075907   -2.147616   -2.176886
