
  xtb     03172202193D
 xtb: 6.3.3 (4ae9cef)
 24 24  0     0  0            999 V2000
   -4.0100    0.2837    1.0865 C   0  0  0  0  0  0  0  0  0  0  0  0
   -3.1899   -0.4089    0.1818 O   0  0  0  0  0  0  0  0  0  0  0  0
   -1.8760   -0.0563    0.1020 C   0  0  0  0  0  0  0  0  0  0  0  0
   -1.2596    0.9261    0.8589 C   0  0  0  0  0  0  0  0  0  0  0  0
    0.0894    1.2089    0.6950 C   0  0  0  0  0  0  0  0  0  0  0  0
    0.8515    0.5216   -0.2303 C   0  0  0  0  0  0  0  0  0  0  0  0
    2.3237    0.7903   -0.3998 C   0  0  0  0  0  0  0  0  0  0  0  0
    3.1180   -0.2784    0.2907 C   0  0  0  0  0  0  0  0  0  0  0  0
    3.9946   -1.0632   -0.3058 C   0  0  0  0  0  0  0  0  0  0  0  0
    0.2379   -0.4715   -0.9879 C   0  0  0  0  0  0  0  0  0  0  0  0
   -1.1033   -0.7668   -0.8373 C   0  0  0  0  0  0  0  0  0  0  0  0
   -1.7210   -1.7319   -1.5728 O   0  0  0  0  0  0  0  0  0  0  0  0
   -4.0485    1.3547    0.8588 H   0  0  0  0  0  0  0  0  0  0  0  0
   -5.0044   -0.1441    0.9688 H   0  0  0  0  0  0  0  0  0  0  0  0
   -3.6783    0.1455    2.1215 H   0  0  0  0  0  0  0  0  0  0  0  0
   -1.8232    1.4855    1.5885 H   0  0  0  0  0  0  0  0  0  0  0  0
    0.5407    1.9815    1.3000 H   0  0  0  0  0  0  0  0  0  0  0  0
    2.5840    0.8151   -1.4599 H   0  0  0  0  0  0  0  0  0  0  0  0
    2.5680    1.7599    0.0415 H   0  0  0  0  0  0  0  0  0  0  0  0
    2.9103   -0.3893    1.3469 H   0  0  0  0  0  0  0  0  0  0  0  0
    4.5382   -1.8233    0.2291 H   0  0  0  0  0  0  0  0  0  0  0  0
    4.2151   -0.9727   -1.3574 H   0  0  0  0  0  0  0  0  0  0  0  0
    0.8219   -1.0269   -1.7108 H   0  0  0  0  0  0  0  0  0  0  0  0
   -1.0790   -2.1395   -2.1667 H   0  0  0  0  0  0  0  0  0  0  0  0
  1  2  1  0  0  0  0
  2  3  1  0  0  0  0
  3  4  4  0  0  0  0
  4  5  4  0  0  0  0
  5  6  4  0  0  0  0
  6  7  1  0  0  0  0
  7  8  1  0  0  0  0
  8  9  2  0  0  0  0
  6 10  4  0  0  0  0
  3 11  4  0  0  0  0
 10 11  4  0  0  0  0
 11 12  1  0  0  0  0
  1 13  1  0  0  0  0
  1 14  1  0  0  0  0
  1 15  1  0  0  0  0
  4 16  1  0  0  0  0
  5 17  1  0  0  0  0
  7 18  1  0  0  0  0
  7 19  1  0  0  0  0
  8 20  1  0  0  0  0
  9 21  1  0  0  0  0
  9 22  1  0  0  0  0
 10 23  1  0  0  0  0
 12 24  1  0  0  0  0
M  END
