
  xtb     03162223533D
 xtb: 6.3.3 (4ae9cef)
 60 64  0     0  0            999 V2000
   -0.5792   -1.4185    3.0217 C   0  0  0  0  0  0  0  0  0  0  0  0
   -0.2272   -2.8244    2.6204 C   0  0  0  0  0  0  0  0  0  0  0  0
   -0.6493   -3.7407    3.5008 F   0  0  0  0  0  0  0  0  0  0  0  0
   -0.8021   -3.1718    1.4395 F   0  0  0  0  0  0  0  0  0  0  0  0
    1.0850   -3.0380    2.4589 F   0  0  0  0  0  0  0  0  0  0  0  0
   -1.2072   -1.2121    4.2444 C   0  0  0  0  0  0  0  0  0  0  0  0
   -1.5666    0.0637    4.6356 C   0  0  0  0  0  0  0  0  0  0  0  0
   -1.3103    1.1375    3.8005 C   0  0  0  0  0  0  0  0  0  0  0  0
   -0.6855    0.9352    2.5846 C   0  0  0  0  0  0  0  0  0  0  0  0
   -0.2985   -0.3394    2.1833 C   0  0  0  0  0  0  0  0  0  0  0  0
    0.3882   -0.4961    0.8460 C   0  0  0  0  0  0  0  0  0  0  0  0
   -0.5874   -0.1927   -0.3138 C   0  0  0  0  0  0  0  0  0  0  0  0
   -1.0897   -1.4125   -1.0497 C   0  0  0  0  0  0  0  0  0  0  0  0
   -0.3652   -2.1615   -1.9826 C   0  0  0  0  0  0  0  0  0  0  0  0
    1.0453   -1.8260   -2.3995 C   0  0  0  0  0  0  0  0  0  0  0  0
    1.8649   -1.5503   -1.3756 F   0  0  0  0  0  0  0  0  0  0  0  0
    1.6279   -2.8234   -3.0752 F   0  0  0  0  0  0  0  0  0  0  0  0
    1.0975   -0.7544   -3.2196 F   0  0  0  0  0  0  0  0  0  0  0  0
   -0.9561   -3.2551   -2.6088 C   0  0  0  0  0  0  0  0  0  0  0  0
   -2.2517   -3.6282   -2.3098 C   0  0  0  0  0  0  0  0  0  0  0  0
   -2.9708   -2.9057   -1.3752 C   0  0  0  0  0  0  0  0  0  0  0  0
   -2.3917   -1.8129   -0.7613 C   0  0  0  0  0  0  0  0  0  0  0  0
    0.1208    0.7661   -1.1405 N   0  0  0  0  0  0  0  0  0  0  0  0
   -0.4115    1.4964   -2.1498 C   0  0  0  0  0  0  0  0  0  0  0  0
   -1.7094    1.0020   -2.6837 C   0  0  0  0  0  0  0  0  0  0  0  0
   -2.9661    1.2230   -2.1978 C   0  0  0  0  0  0  0  0  0  0  0  0
   -3.3183    2.1666   -0.5983 Br  0  0  0  0  0  0  0  0  0  0  0  0
   -3.9949    0.6767   -2.9996 C   0  0  0  0  0  0  0  0  0  0  0  0
   -3.4938    0.0569   -4.0957 C   0  0  0  0  0  0  0  0  0  0  0  0
   -1.7782    0.1369   -4.1753 S   0  0  0  0  0  0  0  0  0  0  0  0
    0.1581    2.4686   -2.5983 O   0  0  0  0  0  0  0  0  0  0  0  0
    1.3615    1.2246   -0.5513 C   0  0  0  0  0  0  0  0  0  0  0  0
    1.2613    2.7508   -0.3241 C   0  0  0  0  0  0  0  0  0  0  0  0
    2.2718    3.4069   -0.8677 O   0  0  0  0  0  0  0  0  0  0  0  0
    0.3803    3.2520    0.3179 O   0  0  0  0  0  0  0  0  0  0  0  0
    1.4463    0.4955    0.6867 N   0  0  0  0  0  0  0  0  0  0  0  0
    2.3563    0.6763    1.6766 C   0  0  0  0  0  0  0  0  0  0  0  0
    3.3926    1.7057    1.4021 C   0  0  0  0  0  0  0  0  0  0  0  0
    4.4585    1.6551    0.5494 C   0  0  0  0  0  0  0  0  0  0  0  0
    4.8019    0.2068   -0.6096 Br  0  0  0  0  0  0  0  0  0  0  0  0
    5.3042    2.7858    0.6249 C   0  0  0  0  0  0  0  0  0  0  0  0
    4.8663    3.6766    1.5482 C   0  0  0  0  0  0  0  0  0  0  0  0
    3.4368    3.1505    2.3475 S   0  0  0  0  0  0  0  0  0  0  0  0
    2.3172    0.0603    2.7182 O   0  0  0  0  0  0  0  0  0  0  0  0
   -1.4091   -2.0538    4.8883 H   0  0  0  0  0  0  0  0  0  0  0  0
   -2.0458    0.2155    5.5899 H   0  0  0  0  0  0  0  0  0  0  0  0
   -1.5935    2.1364    4.0933 H   0  0  0  0  0  0  0  0  0  0  0  0
   -0.4841    1.7814    1.9435 H   0  0  0  0  0  0  0  0  0  0  0  0
    0.8316   -1.4902    0.7469 H   0  0  0  0  0  0  0  0  0  0  0  0
   -1.4654    0.3031    0.1221 H   0  0  0  0  0  0  0  0  0  0  0  0
   -0.3896   -3.8195   -3.3326 H   0  0  0  0  0  0  0  0  0  0  0  0
   -2.6915   -4.4804   -2.8030 H   0  0  0  0  0  0  0  0  0  0  0  0
   -3.9816   -3.1875   -1.1253 H   0  0  0  0  0  0  0  0  0  0  0  0
   -2.9594   -1.2507   -0.0349 H   0  0  0  0  0  0  0  0  0  0  0  0
   -5.0379    0.7575   -2.7557 H   0  0  0  0  0  0  0  0  0  0  0  0
   -4.0329   -0.4430   -4.8749 H   0  0  0  0  0  0  0  0  0  0  0  0
    2.2021    1.0259   -1.2334 H   0  0  0  0  0  0  0  0  0  0  0  0
    2.1426    4.3670   -0.7995 H   0  0  0  0  0  0  0  0  0  0  0  0
    6.1810    2.9065    0.0163 H   0  0  0  0  0  0  0  0  0  0  0  0
    5.3014    4.6188    1.8142 H   0  0  0  0  0  0  0  0  0  0  0  0
  1  2  1  0  0  0  0
  2  3  1  0  0  0  0
  2  4  1  0  0  0  0
  2  5  1  0  0  0  0
  1  6  4  0  0  0  0
  6  7  4  0  0  0  0
  7  8  4  0  0  0  0
  8  9  4  0  0  0  0
  1 10  4  0  0  0  0
  9 10  4  0  0  0  0
 10 11  1  0  0  0  0
 11 12  1  0  0  0  0
 12 13  1  0  0  0  0
 13 14  4  0  0  0  0
 14 15  1  0  0  0  0
 15 16  1  0  0  0  0
 15 17  1  0  0  0  0
 15 18  1  0  0  0  0
 14 19  4  0  0  0  0
 19 20  4  0  0  0  0
 20 21  4  0  0  0  0
 13 22  4  0  0  0  0
 21 22  4  0  0  0  0
 12 23  1  0  0  0  0
 23 24  4  0  0  0  0
 24 25  1  0  0  0  0
 25 26  2  0  0  0  0
 26 27  1  0  0  0  0
 26 28  4  0  0  0  0
 28 29  2  0  0  0  0
 25 30  1  0  0  0  0
 29 30  1  0  0  0  0
 24 31  2  0  0  0  0
 23 32  1  0  0  0  0
 32 33  1  0  0  0  0
 33 34  1  0  0  0  0
 33 35  2  0  0  0  0
 11 36  1  0  0  0  0
 32 36  1  0  0  0  0
 36 37  4  0  0  0  0
 37 38  1  0  0  0  0
 38 39  2  0  0  0  0
 39 40  1  0  0  0  0
 39 41  4  0  0  0  0
 41 42  2  0  0  0  0
 38 43  1  0  0  0  0
 42 43  1  0  0  0  0
 37 44  2  0  0  0  0
  6 45  1  0  0  0  0
  7 46  1  0  0  0  0
  8 47  1  0  0  0  0
  9 48  1  0  0  0  0
 11 49  1  0  0  0  0
 12 50  1  0  0  0  0
 19 51  1  0  0  0  0
 20 52  1  0  0  0  0
 21 53  1  0  0  0  0
 22 54  1  0  0  0  0
 28 55  1  0  0  0  0
 29 56  1  0  0  0  0
 32 57  1  0  0  0  0
 34 58  1  0  0  0  0
 41 59  1  0  0  0  0
 42 60  1  0  0  0  0
M  END
