66

C     -1.800773   -3.202171    0.075646
C     -1.339932   -3.552396    1.477621
F     -1.995229   -2.874501    2.454329
F     -1.481594   -4.874719    1.781880
F     -0.014695   -3.286690    1.661213
C     -2.487147   -4.189765   -0.662613
C     -2.939800   -3.940125   -1.956251
C     -2.718408   -2.698370   -2.534694
C     -2.043627   -1.705986   -1.823264
C     -1.576905   -1.928424   -0.512056
C     -0.850379   -0.807298    0.230786
C      0.541963   -0.470471   -0.380229
C      1.705409   -1.072277    0.406126
C      2.099290   -0.720330    1.724227
C      1.378092    0.265772    2.625984
F      0.955657    1.399556    2.005509
F      2.153821    0.708482    3.659458
F      0.272241   -0.275445    3.205564
C      3.213825   -1.381287    2.295451
C      3.930643   -2.353488    1.602692
C      3.538440   -2.708213    0.323147
C      2.438008   -2.083821   -0.262465
N      0.561478    0.991965   -0.517804
C      1.603663    1.835970   -0.835694
C      2.906057    1.290400   -1.248383
C      4.032935    1.587035   -0.472200
C      5.280860    1.097270   -0.855670
C      5.399770    0.336172   -2.019360
C      4.272167    0.069051   -2.800147
Cl     4.434073   -0.866395   -4.236223
C      3.019804    0.552300   -2.427911
O      1.466083    3.058905   -0.814039
C     -0.761681    1.559056   -0.289671
C     -1.355817    2.150989   -1.613775
O     -0.737389    3.279264   -2.047836
O     -2.298046    1.673956   -2.235748
N     -1.575325    0.463224    0.227507
C     -2.717860    0.608407    0.992819
C     -3.325629    1.944712    1.100893
C     -4.248255    2.362436    0.141737
C     -4.821440    3.624670    0.264506
Cl    -5.959075    4.165058   -0.907060
C     -4.480920    4.458108    1.333349
C     -3.574276    4.020420    2.300751
C     -2.997646    2.755643    2.190755
O     -3.243174   -0.306447    1.615580
H     -2.678867   -5.169676   -0.225318
H     -3.475840   -4.710248   -2.506670
H     -3.080722   -2.491273   -3.539316
H     -1.902991   -0.744232   -2.309660
H     -0.756353   -1.077706    1.283976
H      0.588035   -0.833385   -1.415212
H      3.524973   -1.142300    3.312519
H      4.781339   -2.841785    2.070725
H      4.084312   -3.475865   -0.219291
H      2.158777   -2.401757   -1.267588
H      3.938217    2.192214    0.427087
H      6.160424    1.312902   -0.252812
H      6.376516   -0.041075   -2.314814
H      2.150235    0.359456   -3.052810
H     -0.704572    2.364627    0.449705
H      0.063253    3.524244   -1.517742
H     -4.514423    1.712983   -0.688688
H     -4.936373    5.441738    1.425768
H     -3.327331    4.660892    3.143528
H     -2.307864    2.400046    2.952175
