
  xtb     03162222443D
 xtb: 6.3.3 (4ae9cef)
 66 72  0     0  0            999 V2000
    2.8150   -1.0086   -1.2873 C   0  0  0  0  0  0  0  0  0  0  0  0
    4.1578   -1.0101   -1.0414 C   0  0  0  0  0  0  0  0  0  0  0  0
    4.7116   -0.1779   -0.0466 C   0  0  0  0  0  0  0  0  0  0  0  0
    6.0959   -0.1379    0.2182 C   0  0  0  0  0  0  0  0  0  0  0  0
    6.5953    0.6824    1.1906 C   0  0  0  0  0  0  0  0  0  0  0  0
    5.7350    1.4987    1.9425 C   0  0  0  0  0  0  0  0  0  0  0  0
    4.3886    1.4830    1.7103 C   0  0  0  0  0  0  0  0  0  0  0  0
    3.8430    0.6489    0.7124 C   0  0  0  0  0  0  0  0  0  0  0  0
    2.4622    0.6257    0.4372 C   0  0  0  0  0  0  0  0  0  0  0  0
    1.9513   -0.1731   -0.5534 C   0  0  0  0  0  0  0  0  0  0  0  0
    0.4796   -0.1480   -0.8897 C   0  0  0  0  0  0  0  0  0  0  0  0
   -0.3799   -0.8020    0.2062 C   0  0  0  0  0  0  0  0  0  0  0  0
   -1.6279   -1.4985   -0.2910 C   0  0  0  0  0  0  0  0  0  0  0  0
   -2.2052   -2.4548    0.5060 C   0  0  0  0  0  0  0  0  0  0  0  0
   -3.4046   -3.0909    0.1330 C   0  0  0  0  0  0  0  0  0  0  0  0
   -4.0125   -4.0717    0.9448 C   0  0  0  0  0  0  0  0  0  0  0  0
   -5.1753   -4.6739    0.5549 C   0  0  0  0  0  0  0  0  0  0  0  0
   -5.7825   -4.3256   -0.6627 C   0  0  0  0  0  0  0  0  0  0  0  0
   -5.2198   -3.3770   -1.4694 C   0  0  0  0  0  0  0  0  0  0  0  0
   -4.0210   -2.7355   -1.0946 C   0  0  0  0  0  0  0  0  0  0  0  0
   -3.4094   -1.7498   -1.8945 C   0  0  0  0  0  0  0  0  0  0  0  0
   -2.2474   -1.1439   -1.5059 C   0  0  0  0  0  0  0  0  0  0  0  0
   -0.7398    0.3431    1.0390 N   0  0  0  0  0  0  0  0  0  0  0  0
   -1.0368    0.1961    2.3541 C   0  0  0  0  0  0  0  0  0  0  0  0
   -1.4282    1.4228    3.0878 C   0  0  0  0  0  0  0  0  0  0  0  0
   -2.4940    1.5458    3.9359 C   0  0  0  0  0  0  0  0  0  0  0  0
   -3.4036    0.5904    4.1170 F   0  0  0  0  0  0  0  0  0  0  0  0
   -2.5815    2.7942    4.5935 C   0  0  0  0  0  0  0  0  0  0  0  0
   -1.5497    3.6065    4.2587 C   0  0  0  0  0  0  0  0  0  0  0  0
   -0.4804    2.8713    3.1340 S   0  0  0  0  0  0  0  0  0  0  0  0
   -0.9498   -0.8758    2.9142 O   0  0  0  0  0  0  0  0  0  0  0  0
   -0.9197    1.4789    0.1799 C   0  0  0  0  0  0  0  0  0  0  0  0
   -2.3941    1.6394   -0.2372 C   0  0  0  0  0  0  0  0  0  0  0  0
   -2.5265    2.0136   -1.5003 O   0  0  0  0  0  0  0  0  0  0  0  0
   -3.3038    1.4859    0.5282 O   0  0  0  0  0  0  0  0  0  0  0  0
   -0.0271    1.2226   -0.9279 N   0  0  0  0  0  0  0  0  0  0  0  0
    0.6212    2.2816   -1.4858 C   0  0  0  0  0  0  0  0  0  0  0  0
    1.6519    1.9367   -2.4896 C   0  0  0  0  0  0  0  0  0  0  0  0
    1.5934    1.1169   -3.5826 C   0  0  0  0  0  0  0  0  0  0  0  0
    0.4989    0.4146   -3.9184 F   0  0  0  0  0  0  0  0  0  0  0  0
    2.7770    1.0686   -4.3454 C   0  0  0  0  0  0  0  0  0  0  0  0
    3.7348    1.8706   -3.8120 C   0  0  0  0  0  0  0  0  0  0  0  0
    3.1987    2.6981   -2.4087 S   0  0  0  0  0  0  0  0  0  0  0  0
    0.3690    3.4283   -1.1779 O   0  0  0  0  0  0  0  0  0  0  0  0
    2.3996   -1.6437   -2.0566 H   0  0  0  0  0  0  0  0  0  0  0  0
    4.8169   -1.6467   -1.6137 H   0  0  0  0  0  0  0  0  0  0  0  0
    6.7535   -0.7692   -0.3620 H   0  0  0  0  0  0  0  0  0  0  0  0
    7.6566    0.7086    1.3891 H   0  0  0  0  0  0  0  0  0  0  0  0
    6.1487    2.1396    2.7069 H   0  0  0  0  0  0  0  0  0  0  0  0
    3.7209    2.1094    2.2838 H   0  0  0  0  0  0  0  0  0  0  0  0
    1.8156    1.2697    1.0168 H   0  0  0  0  0  0  0  0  0  0  0  0
    0.3145   -0.6534   -1.8443 H   0  0  0  0  0  0  0  0  0  0  0  0
    0.2042   -1.4934    0.8212 H   0  0  0  0  0  0  0  0  0  0  0  0
   -1.7481   -2.7166    1.4486 H   0  0  0  0  0  0  0  0  0  0  0  0
   -3.5411   -4.3309    1.8814 H   0  0  0  0  0  0  0  0  0  0  0  0
   -5.6382   -5.4230    1.1804 H   0  0  0  0  0  0  0  0  0  0  0  0
   -6.7010   -4.8139   -0.9544 H   0  0  0  0  0  0  0  0  0  0  0  0
   -5.6846   -3.1039   -2.4063 H   0  0  0  0  0  0  0  0  0  0  0  0
   -3.8766   -1.4757   -2.8301 H   0  0  0  0  0  0  0  0  0  0  0  0
   -1.8079   -0.3932   -2.1452 H   0  0  0  0  0  0  0  0  0  0  0  0
   -3.3713    3.0453    5.2764 H   0  0  0  0  0  0  0  0  0  0  0  0
   -1.3420    4.5991    4.6040 H   0  0  0  0  0  0  0  0  0  0  0  0
   -0.6384    2.4337    0.6535 H   0  0  0  0  0  0  0  0  0  0  0  0
   -3.4607    2.1515   -1.7277 H   0  0  0  0  0  0  0  0  0  0  0  0
    2.8875    0.4693   -5.2295 H   0  0  0  0  0  0  0  0  0  0  0  0
    4.7327    2.0279   -4.1683 H   0  0  0  0  0  0  0  0  0  0  0  0
  1  2  2  0  0  0  0
  2  3  4  0  0  0  0
  3  4  4  0  0  0  0
  4  5  2  0  0  0  0
  5  6  4  0  0  0  0
  6  7  2  0  0  0  0
  3  8  4  0  0  0  0
  7  8  4  0  0  0  0
  8  9  4  0  0  0  0
  1 10  4  0  0  0  0
  9 10  2  0  0  0  0
 10 11  1  0  0  0  0
 11 12  1  0  0  0  0
 12 13  1  0  0  0  0
 13 14  2  0  0  0  0
 14 15  4  0  0  0  0
 15 16  4  0  0  0  0
 16 17  2  0  0  0  0
 17 18  4  0  0  0  0
 18 19  2  0  0  0  0
 15 20  4  0  0  0  0
 19 20  4  0  0  0  0
 20 21  4  0  0  0  0
 13 22  4  0  0  0  0
 21 22  2  0  0  0  0
 12 23  1  0  0  0  0
 23 24  4  0  0  0  0
 24 25  1  0  0  0  0
 25 26  2  0  0  0  0
 26 27  1  0  0  0  0
 26 28  4  0  0  0  0
 28 29  2  0  0  0  0
 25 30  1  0  0  0  0
 29 30  1  0  0  0  0
 24 31  2  0  0  0  0
 23 32  1  0  0  0  0
 32 33  1  0  0  0  0
 33 34  1  0  0  0  0
 33 35  2  0  0  0  0
 11 36  1  0  0  0  0
 32 36  1  0  0  0  0
 36 37  4  0  0  0  0
 37 38  1  0  0  0  0
 38 39  2  0  0  0  0
 39 40  1  0  0  0  0
 39 41  4  0  0  0  0
 41 42  2  0  0  0  0
 38 43  1  0  0  0  0
 42 43  1  0  0  0  0
 37 44  2  0  0  0  0
  1 45  1  0  0  0  0
  2 46  1  0  0  0  0
  4 47  1  0  0  0  0
  5 48  1  0  0  0  0
  6 49  1  0  0  0  0
  7 50  1  0  0  0  0
  9 51  1  0  0  0  0
 11 52  1  0  0  0  0
 12 53  1  0  0  0  0
 14 54  1  0  0  0  0
 16 55  1  0  0  0  0
 17 56  1  0  0  0  0
 18 57  1  0  0  0  0
 19 58  1  0  0  0  0
 21 59  1  0  0  0  0
 22 60  1  0  0  0  0
 28 61  1  0  0  0  0
 29 62  1  0  0  0  0
 32 63  1  0  0  0  0
 34 64  1  0  0  0  0
 41 65  1  0  0  0  0
 42 66  1  0  0  0  0
M  END
