
  xtb     03162222583D
 xtb: 6.3.3 (4ae9cef)
 78 82  0     0  0            999 V2000
    0.6789   -3.9439    0.6078 C   0  0  0  0  0  0  0  0  0  0  0  0
    0.8928   -4.9619    1.5199 C   0  0  0  0  0  0  0  0  0  0  0  0
    1.2481   -4.6637    2.8240 C   0  0  0  0  0  0  0  0  0  0  0  0
    1.3825   -3.3425    3.2157 C   0  0  0  0  0  0  0  0  0  0  0  0
    1.1604   -2.3245    2.3070 C   0  0  0  0  0  0  0  0  0  0  0  0
    0.8171   -2.6189    0.9941 C   0  0  0  0  0  0  0  0  0  0  0  0
    0.5405   -1.5142    0.0118 C   0  0  0  0  0  0  0  0  0  0  0  0
   -0.8572   -0.8918    0.2374 C   0  0  0  0  0  0  0  0  0  0  0  0
   -1.8803   -1.5731   -0.6275 C   0  0  0  0  0  0  0  0  0  0  0  0
   -1.8699   -1.3925   -2.0054 C   0  0  0  0  0  0  0  0  0  0  0  0
   -2.7936   -2.0462   -2.7988 C   0  0  0  0  0  0  0  0  0  0  0  0
   -3.7250   -2.8965   -2.2263 C   0  0  0  0  0  0  0  0  0  0  0  0
   -3.7206   -3.1004   -0.8580 C   0  0  0  0  0  0  0  0  0  0  0  0
   -2.7996   -2.4433   -0.0615 C   0  0  0  0  0  0  0  0  0  0  0  0
   -0.6449    0.5123   -0.0640 N   0  0  0  0  0  0  0  0  0  0  0  0
   -1.4685    1.3923   -0.6815 C   0  0  0  0  0  0  0  0  0  0  0  0
   -2.9242    1.1069   -0.6684 C   0  0  0  0  0  0  0  0  0  0  0  0
   -3.6495    1.2771   -1.8421 C   0  0  0  0  0  0  0  0  0  0  0  0
   -5.0111    1.0471   -1.8412 C   0  0  0  0  0  0  0  0  0  0  0  0
   -5.6529    0.6853   -0.6696 C   0  0  0  0  0  0  0  0  0  0  0  0
   -4.9496    0.5528    0.5213 C   0  0  0  0  0  0  0  0  0  0  0  0
   -5.6751    0.2197    1.8020 C   0  0  0  0  0  0  0  0  0  0  0  0
   -5.1393   -1.0676    2.4297 C   0  0  0  0  0  0  0  0  0  0  0  0
   -5.5776    1.3869    2.7873 C   0  0  0  0  0  0  0  0  0  0  0  0
   -3.5766    0.7579    0.5063 C   0  0  0  0  0  0  0  0  0  0  0  0
   -0.9984    2.4006   -1.1889 O   0  0  0  0  0  0  0  0  0  0  0  0
    0.7585    0.8705   -0.0053 C   0  0  0  0  0  0  0  0  0  0  0  0
    1.1861    1.5953   -1.3009 C   0  0  0  0  0  0  0  0  0  0  0  0
    0.9027    0.8514   -2.3797 O   0  0  0  0  0  0  0  0  0  0  0  0
    1.8421    2.5962   -1.3359 O   0  0  0  0  0  0  0  0  0  0  0  0
    1.4451   -0.3862    0.1722 N   0  0  0  0  0  0  0  0  0  0  0  0
    2.7937   -0.5807    0.0628 C   0  0  0  0  0  0  0  0  0  0  0  0
    3.6143    0.6502    0.2371 C   0  0  0  0  0  0  0  0  0  0  0  0
    4.4653    1.0507   -0.7829 C   0  0  0  0  0  0  0  0  0  0  0  0
    5.2345    2.1981   -0.6616 C   0  0  0  0  0  0  0  0  0  0  0  0
    6.0949    2.6600   -1.8104 C   0  0  0  0  0  0  0  0  0  0  0  0
    7.5662    2.7579   -1.4043 C   0  0  0  0  0  0  0  0  0  0  0  0
    5.5778    4.0010   -2.3371 C   0  0  0  0  0  0  0  0  0  0  0  0
    5.1648    2.9197    0.5238 C   0  0  0  0  0  0  0  0  0  0  0  0
    4.3490    2.5047    1.5599 C   0  0  0  0  0  0  0  0  0  0  0  0
    3.5635    1.3759    1.4198 C   0  0  0  0  0  0  0  0  0  0  0  0
    3.2613   -1.6838   -0.1255 O   0  0  0  0  0  0  0  0  0  0  0  0
    0.4081   -4.1769   -0.4117 H   0  0  0  0  0  0  0  0  0  0  0  0
    0.7883   -5.9909    1.2094 H   0  0  0  0  0  0  0  0  0  0  0  0
    1.4240   -5.4587    3.5333 H   0  0  0  0  0  0  0  0  0  0  0  0
    1.6627   -3.1047    4.2314 H   0  0  0  0  0  0  0  0  0  0  0  0
    1.2694   -1.2935    2.6125 H   0  0  0  0  0  0  0  0  0  0  0  0
    0.6162   -1.9076   -1.0115 H   0  0  0  0  0  0  0  0  0  0  0  0
   -1.1287   -1.0025    1.2975 H   0  0  0  0  0  0  0  0  0  0  0  0
   -1.1411   -0.7323   -2.4533 H   0  0  0  0  0  0  0  0  0  0  0  0
   -2.7856   -1.8949   -3.8678 H   0  0  0  0  0  0  0  0  0  0  0  0
   -4.4472   -3.4049   -2.8472 H   0  0  0  0  0  0  0  0  0  0  0  0
   -4.4347   -3.7747   -0.4089 H   0  0  0  0  0  0  0  0  0  0  0  0
   -2.7895   -2.6107    1.0054 H   0  0  0  0  0  0  0  0  0  0  0  0
   -3.1359    1.5809   -2.7409 H   0  0  0  0  0  0  0  0  0  0  0  0
   -5.5782    1.1609   -2.7530 H   0  0  0  0  0  0  0  0  0  0  0  0
   -6.7205    0.5173   -0.6767 H   0  0  0  0  0  0  0  0  0  0  0  0
   -6.7326    0.0645    1.5617 H   0  0  0  0  0  0  0  0  0  0  0  0
   -5.7251   -1.3269    3.3088 H   0  0  0  0  0  0  0  0  0  0  0  0
   -4.1028   -0.9484    2.7346 H   0  0  0  0  0  0  0  0  0  0  0  0
   -5.1993   -1.8868    1.7171 H   0  0  0  0  0  0  0  0  0  0  0  0
   -5.9663    2.2969    2.3359 H   0  0  0  0  0  0  0  0  0  0  0  0
   -4.5446    1.5634    3.0764 H   0  0  0  0  0  0  0  0  0  0  0  0
   -6.1539    1.1712    3.6842 H   0  0  0  0  0  0  0  0  0  0  0  0
   -3.0073    0.6728    1.4196 H   0  0  0  0  0  0  0  0  0  0  0  0
    0.9487    1.5676    0.8263 H   0  0  0  0  0  0  0  0  0  0  0  0
    1.1897    1.3181   -3.1799 H   0  0  0  0  0  0  0  0  0  0  0  0
    4.5061    0.4626   -1.6890 H   0  0  0  0  0  0  0  0  0  0  0  0
    6.0127    1.9206   -2.6147 H   0  0  0  0  0  0  0  0  0  0  0  0
    7.9181    1.8014   -1.0239 H   0  0  0  0  0  0  0  0  0  0  0  0
    8.1741    3.0344   -2.2630 H   0  0  0  0  0  0  0  0  0  0  0  0
    7.7072    3.5081   -0.6304 H   0  0  0  0  0  0  0  0  0  0  0  0
    5.7264    4.7861   -1.6001 H   0  0  0  0  0  0  0  0  0  0  0  0
    6.1042    4.2794   -3.2476 H   0  0  0  0  0  0  0  0  0  0  0  0
    4.5136    3.9333   -2.5505 H   0  0  0  0  0  0  0  0  0  0  0  0
    5.7522    3.8176    0.6431 H   0  0  0  0  0  0  0  0  0  0  0  0
    4.3172    3.0703    2.4798 H   0  0  0  0  0  0  0  0  0  0  0  0
    2.9282    1.0479    2.2303 H   0  0  0  0  0  0  0  0  0  0  0  0
  1  2  4  0  0  0  0
  2  3  4  0  0  0  0
  3  4  4  0  0  0  0
  4  5  4  0  0  0  0
  1  6  4  0  0  0  0
  5  6  4  0  0  0  0
  6  7  1  0  0  0  0
  7  8  1  0  0  0  0
  8  9  1  0  0  0  0
  9 10  4  0  0  0  0
 10 11  4  0  0  0  0
 11 12  4  0  0  0  0
 12 13  4  0  0  0  0
  9 14  4  0  0  0  0
 13 14  4  0  0  0  0
  8 15  1  0  0  0  0
 15 16  4  0  0  0  0
 16 17  1  0  0  0  0
 17 18  4  0  0  0  0
 18 19  4  0  0  0  0
 19 20  4  0  0  0  0
 20 21  4  0  0  0  0
 21 22  1  0  0  0  0
 22 23  1  0  0  0  0
 22 24  1  0  0  0  0
 17 25  4  0  0  0  0
 21 25  4  0  0  0  0
 16 26  2  0  0  0  0
 15 27  1  0  0  0  0
 27 28  1  0  0  0  0
 28 29  1  0  0  0  0
 28 30  2  0  0  0  0
  7 31  1  0  0  0  0
 27 31  1  0  0  0  0
 31 32  1  0  0  0  0
 32 33  1  0  0  0  0
 33 34  4  0  0  0  0
 34 35  4  0  0  0  0
 35 36  1  0  0  0  0
 36 37  1  0  0  0  0
 36 38  1  0  0  0  0
 35 39  4  0  0  0  0
 39 40  4  0  0  0  0
 33 41  4  0  0  0  0
 40 41  4  0  0  0  0
 32 42  2  0  0  0  0
  1 43  1  0  0  0  0
  2 44  1  0  0  0  0
  3 45  1  0  0  0  0
  4 46  1  0  0  0  0
  5 47  1  0  0  0  0
  7 48  1  0  0  0  0
  8 49  1  0  0  0  0
 10 50  1  0  0  0  0
 11 51  1  0  0  0  0
 12 52  1  0  0  0  0
 13 53  1  0  0  0  0
 14 54  1  0  0  0  0
 18 55  1  0  0  0  0
 19 56  1  0  0  0  0
 20 57  1  0  0  0  0
 22 58  1  0  0  0  0
 23 59  1  0  0  0  0
 23 60  1  0  0  0  0
 23 61  1  0  0  0  0
 24 62  1  0  0  0  0
 24 63  1  0  0  0  0
 24 64  1  0  0  0  0
 25 65  1  0  0  0  0
 27 66  1  0  0  0  0
 29 67  1  0  0  0  0
 34 68  1  0  0  0  0
 36 69  1  0  0  0  0
 37 70  1  0  0  0  0
 37 71  1  0  0  0  0
 37 72  1  0  0  0  0
 38 73  1  0  0  0  0
 38 74  1  0  0  0  0
 38 75  1  0  0  0  0
 39 76  1  0  0  0  0
 40 77  1  0  0  0  0
 41 78  1  0  0  0  0
M  END
