
  xtb     03162223513D
 xtb: 6.3.3 (4ae9cef)
 70 78  0     0  0            999 V2000
    4.2098   -2.5791   -3.0422 C   0  0  0  0  0  0  0  0  0  0  0  0
    4.2846   -1.4689   -3.8340 C   0  0  0  0  0  0  0  0  0  0  0  0
    3.3622   -0.4282   -3.6610 C   0  0  0  0  0  0  0  0  0  0  0  0
    2.3953   -0.5071   -2.6969 C   0  0  0  0  0  0  0  0  0  0  0  0
    2.2983   -1.6318   -1.8492 C   0  0  0  0  0  0  0  0  0  0  0  0
    3.2230   -2.6925   -2.0411 C   0  0  0  0  0  0  0  0  0  0  0  0
    3.1393   -3.8441   -1.2312 C   0  0  0  0  0  0  0  0  0  0  0  0
    2.1747   -3.9450   -0.2730 C   0  0  0  0  0  0  0  0  0  0  0  0
    1.2711   -2.8934   -0.0625 C   0  0  0  0  0  0  0  0  0  0  0  0
    1.3303   -1.7477   -0.8109 C   0  0  0  0  0  0  0  0  0  0  0  0
    0.3551   -0.6205   -0.6098 C   0  0  0  0  0  0  0  0  0  0  0  0
   -0.6955   -0.7342    0.5121 C   0  0  0  0  0  0  0  0  0  0  0  0
   -1.8542   -1.6424    0.1916 C   0  0  0  0  0  0  0  0  0  0  0  0
   -2.6038   -1.3603   -0.9250 C   0  0  0  0  0  0  0  0  0  0  0  0
   -3.6584   -2.1883   -1.3258 C   0  0  0  0  0  0  0  0  0  0  0  0
   -3.9543   -3.3104   -0.6079 C   0  0  0  0  0  0  0  0  0  0  0  0
   -3.2348   -3.6210    0.5634 C   0  0  0  0  0  0  0  0  0  0  0  0
   -2.1812   -2.7677    0.9970 C   0  0  0  0  0  0  0  0  0  0  0  0
   -1.5400   -3.0899    2.2144 C   0  0  0  0  0  0  0  0  0  0  0  0
   -1.8870   -4.2014    2.9308 C   0  0  0  0  0  0  0  0  0  0  0  0
   -2.8973   -5.0599    2.4760 C   0  0  0  0  0  0  0  0  0  0  0  0
   -3.5613   -4.7663    1.3203 C   0  0  0  0  0  0  0  0  0  0  0  0
   -1.1161    0.6708    0.6260 N   0  0  0  0  0  0  0  0  0  0  0  0
   -2.1655    1.0118    1.4056 C   0  0  0  0  0  0  0  0  0  0  0  0
   -2.6270    2.4226    1.3435 C   0  0  0  0  0  0  0  0  0  0  0  0
   -3.5319    3.0357    2.1852 C   0  0  0  0  0  0  0  0  0  0  0  0
   -3.7556    4.3194    1.6659 C   0  0  0  0  0  0  0  0  0  0  0  0
   -2.9762    4.3960    0.5338 C   0  0  0  0  0  0  0  0  0  0  0  0
   -2.8356    5.4298   -0.4207 N   0  0  0  0  0  0  0  0  0  0  0  0
   -3.4265    6.4638   -0.2005 O   0  0  0  0  0  0  0  0  0  0  0  0
   -2.1397    5.2061   -1.3925 O   0  0  0  0  0  0  0  0  0  0  0  0
   -2.2887    3.2531    0.3436 O   0  0  0  0  0  0  0  0  0  0  0  0
   -2.7534    0.2172    2.1101 O   0  0  0  0  0  0  0  0  0  0  0  0
   -0.1542    1.5521   -0.0151 C   0  0  0  0  0  0  0  0  0  0  0  0
   -0.7143    2.1554   -1.3280 C   0  0  0  0  0  0  0  0  0  0  0  0
   -0.1487    3.3226   -1.5770 O   0  0  0  0  0  0  0  0  0  0  0  0
   -1.5362    1.6245   -2.0170 O   0  0  0  0  0  0  0  0  0  0  0  0
    0.9661    0.6824   -0.2924 N   0  0  0  0  0  0  0  0  0  0  0  0
    2.1607    0.7716    0.3731 C   0  0  0  0  0  0  0  0  0  0  0  0
    2.5984    2.1686    0.6714 C   0  0  0  0  0  0  0  0  0  0  0  0
    2.5836    3.3131   -0.0985 C   0  0  0  0  0  0  0  0  0  0  0  0
    3.2963    4.2833    0.6238 C   0  0  0  0  0  0  0  0  0  0  0  0
    3.6963    3.6536    1.7799 C   0  0  0  0  0  0  0  0  0  0  0  0
    4.4235    4.1656    2.8880 N   0  0  0  0  0  0  0  0  0  0  0  0
    4.6086    3.4343    3.8322 O   0  0  0  0  0  0  0  0  0  0  0  0
    4.7966    5.3173    2.7936 O   0  0  0  0  0  0  0  0  0  0  0  0
    3.2812    2.3794    1.8033 O   0  0  0  0  0  0  0  0  0  0  0  0
    2.8741   -0.1657    0.6291 O   0  0  0  0  0  0  0  0  0  0  0  0
    4.9094   -3.3928   -3.1691 H   0  0  0  0  0  0  0  0  0  0  0  0
    5.0453   -1.3865   -4.5961 H   0  0  0  0  0  0  0  0  0  0  0  0
    3.4187    0.4418   -4.2990 H   0  0  0  0  0  0  0  0  0  0  0  0
    1.6972    0.3092   -2.5904 H   0  0  0  0  0  0  0  0  0  0  0  0
    3.8506   -4.6419   -1.3881 H   0  0  0  0  0  0  0  0  0  0  0  0
    2.0986   -4.8289    0.3421 H   0  0  0  0  0  0  0  0  0  0  0  0
    0.5258   -3.0132    0.7054 H   0  0  0  0  0  0  0  0  0  0  0  0
   -0.1853   -0.4754   -1.5555 H   0  0  0  0  0  0  0  0  0  0  0  0
   -0.2035   -1.0156    1.4476 H   0  0  0  0  0  0  0  0  0  0  0  0
   -2.3932   -0.4778   -1.5101 H   0  0  0  0  0  0  0  0  0  0  0  0
   -4.2228   -1.9324   -2.2098 H   0  0  0  0  0  0  0  0  0  0  0  0
   -4.7527   -3.9699   -0.9159 H   0  0  0  0  0  0  0  0  0  0  0  0
   -0.7781   -2.4417    2.6190 H   0  0  0  0  0  0  0  0  0  0  0  0
   -1.3835   -4.4209    3.8608 H   0  0  0  0  0  0  0  0  0  0  0  0
   -3.1525   -5.9376    3.0509 H   0  0  0  0  0  0  0  0  0  0  0  0
   -4.3579   -5.4047    0.9659 H   0  0  0  0  0  0  0  0  0  0  0  0
   -3.9686    2.5920    3.0557 H   0  0  0  0  0  0  0  0  0  0  0  0
   -4.3974    5.0883    2.0444 H   0  0  0  0  0  0  0  0  0  0  0  0
    0.1417    2.3832    0.6363 H   0  0  0  0  0  0  0  0  0  0  0  0
   -0.6032    3.8062   -2.2919 H   0  0  0  0  0  0  0  0  0  0  0  0
    2.1216    3.4354   -1.0552 H   0  0  0  0  0  0  0  0  0  0  0  0
    3.4983    5.2986    0.3515 H   0  0  0  0  0  0  0  0  0  0  0  0
  1  2  2  0  0  0  0
  2  3  4  0  0  0  0
  3  4  2  0  0  0  0
  4  5  4  0  0  0  0
  1  6  4  0  0  0  0
  5  6  4  0  0  0  0
  6  7  4  0  0  0  0
  7  8  2  0  0  0  0
  8  9  4  0  0  0  0
  5 10  4  0  0  0  0
  9 10  2  0  0  0  0
 10 11  1  0  0  0  0
 11 12  1  0  0  0  0
 12 13  1  0  0  0  0
 13 14  2  0  0  0  0
 14 15  4  0  0  0  0
 15 16  2  0  0  0  0
 16 17  4  0  0  0  0
 13 18  4  0  0  0  0
 17 18  4  0  0  0  0
 18 19  4  0  0  0  0
 19 20  2  0  0  0  0
 20 21  4  0  0  0  0
 17 22  4  0  0  0  0
 21 22  2  0  0  0  0
 12 23  1  0  0  0  0
 23 24  4  0  0  0  0
 24 25  1  0  0  0  0
 25 26  4  0  0  0  0
 26 27  4  0  0  0  0
 27 28  4  0  0  0  0
 28 29  1  0  0  0  0
 29 30  4  0  0  0  0
 29 31  4  0  0  0  0
 30 31  1  0  0  0  0
 25 32  1  0  0  0  0
 28 32  1  0  0  0  0
 24 33  2  0  0  0  0
 23 34  1  0  0  0  0
 34 35  1  0  0  0  0
 35 36  1  0  0  0  0
 35 37  2  0  0  0  0
 11 38  1  0  0  0  0
 34 38  1  0  0  0  0
 38 39  1  0  0  0  0
 39 40  1  0  0  0  0
 40 41  4  0  0  0  0
 41 42  4  0  0  0  0
 42 43  4  0  0  0  0
 43 44  1  0  0  0  0
 44 45  4  0  0  0  0
 44 46  4  0  0  0  0
 45 46  1  0  0  0  0
 40 47  1  0  0  0  0
 43 47  1  0  0  0  0
 39 48  2  0  0  0  0
  1 49  1  0  0  0  0
  2 50  1  0  0  0  0
  3 51  1  0  0  0  0
  4 52  1  0  0  0  0
  7 53  1  0  0  0  0
  8 54  1  0  0  0  0
  9 55  1  0  0  0  0
 11 56  1  0  0  0  0
 12 57  1  0  0  0  0
 14 58  1  0  0  0  0
 15 59  1  0  0  0  0
 16 60  1  0  0  0  0
 19 61  1  0  0  0  0
 20 62  1  0  0  0  0
 21 63  1  0  0  0  0
 22 64  1  0  0  0  0
 26 65  1  0  0  0  0
 27 66  1  0  0  0  0
 34 67  1  0  0  0  0
 36 68  1  0  0  0  0
 41 69  1  0  0  0  0
 42 70  1  0  0  0  0
M  END
