62

C      2.303358   -1.666977    0.274220
O      2.251326   -1.696352   -1.094586
C      3.092019   -2.627641   -1.767483
C      3.115227   -2.500982    1.053012
C      3.109244   -2.402720    2.444528
C      2.285369   -1.478729    3.069475
C      1.460986   -0.652605    2.306262
C      1.466196   -0.722497    0.901131
C      0.563600    0.176174    0.067336
C     -0.904248   -0.324287    0.049031
C     -1.229091   -1.006536   -1.269299
C     -1.518551   -0.267161   -2.430477
C     -1.807143   -0.914348   -3.635095
C     -1.780694   -2.305046   -3.708407
C     -1.480509   -3.053647   -2.575389
C     -1.227586   -2.407235   -1.362178
O     -0.900019   -3.167876   -0.270451
C     -2.084685   -3.712008    0.325473
N     -1.704589    0.881546    0.289407
C     -3.082750    0.797177    0.466698
C     -3.801613    2.052218    0.611934
C     -3.790709    3.169543   -0.205443
C     -4.683139    4.187275    0.257659
C     -5.316773    3.798469    1.411098
Br    -6.582824    4.883445    2.346333
S     -4.902017    2.237240    1.915189
O     -3.660933   -0.287310    0.450535
C     -0.886981    1.940594    0.860971
C     -1.021833    2.021944    2.417651
O     -0.396047    3.087083    2.980438
O     -1.607859    1.186566    3.097199
N      0.479567    1.567865    0.548407
C      1.479700    2.519427    0.578160
C      2.794196    2.137332    0.114530
C      3.230459    1.934361   -1.180865
C      4.599331    1.526579   -1.220700
C      5.119677    1.421828    0.043278
Br     6.909242    0.861981    0.396194
S      4.032373    1.872047    1.263778
O      1.213296    3.649496    1.002862
H      2.932438   -2.511267   -2.842803
H      4.147773   -2.417938   -1.571241
H      2.827659   -3.658498   -1.504514
H      3.763000   -3.247623    0.610919
H      3.749033   -3.052121    3.038375
H      2.282014   -1.389898    4.149406
H      0.819519    0.047037    2.831782
H      0.957390    0.261976   -0.950675
H     -1.115810   -0.993659    0.889941
H     -1.539270    0.818478   -2.402247
H     -2.053298   -0.331939   -4.522256
H     -2.000993   -2.807157   -4.647431
H     -1.443714   -4.139073   -2.629202
H     -2.599680   -4.393620   -0.361504
H     -2.768827   -2.921879    0.656365
H     -1.782140   -4.288672    1.205966
H     -3.218457    3.238990   -1.121409
H     -4.851143    5.136322   -0.234924
H     -1.150314    2.908064    0.419674
H      0.142954    3.621704    2.345276
H      2.611033    2.092972   -2.056910
H      5.156257    1.311565   -2.125002
