
  xtb     03172200023D
 xtb: 6.3.3 (4ae9cef)
 92 96  0     0  0            999 V2000
   -0.8812    2.7001    1.0961 C   0  0  0  0  0  0  0  0  0  0  0  0
   -1.0138    1.4639    1.6624 O   0  0  0  0  0  0  0  0  0  0  0  0
   -1.2927    1.3773    3.0377 C   0  0  0  0  0  0  0  0  0  0  0  0
   -0.9123    3.8907    1.8091 C   0  0  0  0  0  0  0  0  0  0  0  0
   -0.7292    5.0998    1.1592 C   0  0  0  0  0  0  0  0  0  0  0  0
   -0.5158    5.1357   -0.2043 C   0  0  0  0  0  0  0  0  0  0  0  0
   -0.5003    3.9517   -0.9214 C   0  0  0  0  0  0  0  0  0  0  0  0
   -0.6854    2.7343   -0.2931 C   0  0  0  0  0  0  0  0  0  0  0  0
   -0.6275    1.4572   -1.0809 C   0  0  0  0  0  0  0  0  0  0  0  0
    0.6208    0.6232   -0.7081 C   0  0  0  0  0  0  0  0  0  0  0  0
    1.7809    0.8782   -1.6291 C   0  0  0  0  0  0  0  0  0  0  0  0
    1.9063    0.2305   -2.8447 C   0  0  0  0  0  0  0  0  0  0  0  0
    2.9841    0.4837   -3.6762 C   0  0  0  0  0  0  0  0  0  0  0  0
    3.9398    1.4026   -3.2890 C   0  0  0  0  0  0  0  0  0  0  0  0
    3.8267    2.0687   -2.0800 C   0  0  0  0  0  0  0  0  0  0  0  0
    2.7511    1.8135   -1.2394 C   0  0  0  0  0  0  0  0  0  0  0  0
    2.5552    2.4095   -0.0294 O   0  0  0  0  0  0  0  0  0  0  0  0
    3.5012    3.3443    0.4252 C   0  0  0  0  0  0  0  0  0  0  0  0
    0.1375   -0.7466   -0.7200 N   0  0  0  0  0  0  0  0  0  0  0  0
    0.8037   -1.8118   -0.2034 C   0  0  0  0  0  0  0  0  0  0  0  0
    2.2417   -1.5144    0.0826 C   0  0  0  0  0  0  0  0  0  0  0  0
    2.6202   -0.8639    1.2467 C   0  0  0  0  0  0  0  0  0  0  0  0
    3.9470   -0.5376    1.4681 C   0  0  0  0  0  0  0  0  0  0  0  0
    4.9309   -0.8511    0.5388 C   0  0  0  0  0  0  0  0  0  0  0  0
    6.3956   -0.4877    0.7285 C   0  0  0  0  0  0  0  0  0  0  0  0
    7.2287   -1.7763    0.7687 C   0  0  0  0  0  0  0  0  0  0  0  0
    6.8490    0.3876   -0.4484 C   0  0  0  0  0  0  0  0  0  0  0  0
    6.6507    0.2859    2.0253 C   0  0  0  0  0  0  0  0  0  0  0  0
    4.5394   -1.5364   -0.6089 C   0  0  0  0  0  0  0  0  0  0  0  0
    3.2192   -1.8681   -0.8366 C   0  0  0  0  0  0  0  0  0  0  0  0
    0.2700   -2.8884   -0.0336 O   0  0  0  0  0  0  0  0  0  0  0  0
   -1.2783   -0.8007   -0.9810 C   0  0  0  0  0  0  0  0  0  0  0  0
   -1.6104   -1.2859   -2.4061 C   0  0  0  0  0  0  0  0  0  0  0  0
   -0.6589   -2.0582   -2.9197 O   0  0  0  0  0  0  0  0  0  0  0  0
   -2.6263   -1.0104   -2.9805 O   0  0  0  0  0  0  0  0  0  0  0  0
   -1.7277    0.5500   -0.7860 N   0  0  0  0  0  0  0  0  0  0  0  0
   -3.0187    0.9774   -0.7086 C   0  0  0  0  0  0  0  0  0  0  0  0
   -4.0144   -0.0751   -0.3594 C   0  0  0  0  0  0  0  0  0  0  0  0
   -3.8968   -0.8177    0.8099 C   0  0  0  0  0  0  0  0  0  0  0  0
   -4.8596   -1.7501    1.1405 C   0  0  0  0  0  0  0  0  0  0  0  0
   -5.9631   -1.9796    0.3205 C   0  0  0  0  0  0  0  0  0  0  0  0
   -6.9878   -3.0283    0.7241 C   0  0  0  0  0  0  0  0  0  0  0  0
   -8.1209   -3.1698   -0.2958 C   0  0  0  0  0  0  0  0  0  0  0  0
   -7.6043   -2.6296    2.0724 C   0  0  0  0  0  0  0  0  0  0  0  0
   -6.2883   -4.3889    0.8520 C   0  0  0  0  0  0  0  0  0  0  0  0
   -6.0751   -1.2182   -0.8365 C   0  0  0  0  0  0  0  0  0  0  0  0
   -5.1227   -0.2708   -1.1683 C   0  0  0  0  0  0  0  0  0  0  0  0
   -3.3208    2.1422   -0.8661 O   0  0  0  0  0  0  0  0  0  0  0  0
   -2.2398    1.8654    3.2875 H   0  0  0  0  0  0  0  0  0  0  0  0
   -1.3678    0.3125    3.2575 H   0  0  0  0  0  0  0  0  0  0  0  0
   -0.4879    1.8094    3.6421 H   0  0  0  0  0  0  0  0  0  0  0  0
   -1.0805    3.8898    2.8746 H   0  0  0  0  0  0  0  0  0  0  0  0
   -0.7567    6.0156    1.7311 H   0  0  0  0  0  0  0  0  0  0  0  0
   -0.3723    6.0781   -0.7102 H   0  0  0  0  0  0  0  0  0  0  0  0
   -0.3484    3.9706   -1.9905 H   0  0  0  0  0  0  0  0  0  0  0  0
   -0.6172    1.6925   -2.1559 H   0  0  0  0  0  0  0  0  0  0  0  0
    0.9282    0.8914    0.3072 H   0  0  0  0  0  0  0  0  0  0  0  0
    1.1607   -0.4953   -3.1293 H   0  0  0  0  0  0  0  0  0  0  0  0
    3.0749   -0.0333   -4.6190 H   0  0  0  0  0  0  0  0  0  0  0  0
    4.7847    1.6105   -3.9284 H   0  0  0  0  0  0  0  0  0  0  0  0
    4.5821    2.7881   -1.8061 H   0  0  0  0  0  0  0  0  0  0  0  0
    3.1349    3.6820    1.3933 H   0  0  0  0  0  0  0  0  0  0  0  0
    3.5752    4.2033   -0.2485 H   0  0  0  0  0  0  0  0  0  0  0  0
    4.4889    2.8880    0.5486 H   0  0  0  0  0  0  0  0  0  0  0  0
    1.8762   -0.6092    1.9881 H   0  0  0  0  0  0  0  0  0  0  0  0
    4.1977   -0.0261    2.3832 H   0  0  0  0  0  0  0  0  0  0  0  0
    8.2792   -1.5392    0.9235 H   0  0  0  0  0  0  0  0  0  0  0  0
    7.1382   -2.3345   -0.1587 H   0  0  0  0  0  0  0  0  0  0  0  0
    6.8945   -2.4143    1.5840 H   0  0  0  0  0  0  0  0  0  0  0  0
    7.8915    0.6732   -0.3241 H   0  0  0  0  0  0  0  0  0  0  0  0
    6.2456    1.2911   -0.4990 H   0  0  0  0  0  0  0  0  0  0  0  0
    6.7482   -0.1355   -1.3948 H   0  0  0  0  0  0  0  0  0  0  0  0
    6.3866   -0.3106    2.8951 H   0  0  0  0  0  0  0  0  0  0  0  0
    7.7081    0.5330    2.0978 H   0  0  0  0  0  0  0  0  0  0  0  0
    6.0867    1.2159    2.0471 H   0  0  0  0  0  0  0  0  0  0  0  0
    5.2733   -1.8167   -1.3489 H   0  0  0  0  0  0  0  0  0  0  0  0
    2.9389   -2.3956   -1.7357 H   0  0  0  0  0  0  0  0  0  0  0  0
   -1.7593   -1.5204   -0.3008 H   0  0  0  0  0  0  0  0  0  0  0  0
   -0.9272   -2.4086   -3.7856 H   0  0  0  0  0  0  0  0  0  0  0  0
   -3.0593   -0.6476    1.4715 H   0  0  0  0  0  0  0  0  0  0  0  0
   -4.7418   -2.3076    2.0577 H   0  0  0  0  0  0  0  0  0  0  0  0
   -8.8138   -3.9401    0.0372 H   0  0  0  0  0  0  0  0  0  0  0  0
   -7.7357   -3.4628   -1.2696 H   0  0  0  0  0  0  0  0  0  0  0  0
   -8.6763   -2.2403   -0.3961 H   0  0  0  0  0  0  0  0  0  0  0  0
   -6.8502   -2.5755    2.8527 H   0  0  0  0  0  0  0  0  0  0  0  0
   -8.0828   -1.6557    1.9929 H   0  0  0  0  0  0  0  0  0  0  0  0
   -8.3535   -3.3594    2.3723 H   0  0  0  0  0  0  0  0  0  0  0  0
   -7.0110   -5.1578    1.1174 H   0  0  0  0  0  0  0  0  0  0  0  0
   -5.5167   -4.3700    1.6163 H   0  0  0  0  0  0  0  0  0  0  0  0
   -5.8242   -4.6625   -0.0932 H   0  0  0  0  0  0  0  0  0  0  0  0
   -6.9139   -1.3485   -1.5001 H   0  0  0  0  0  0  0  0  0  0  0  0
   -5.2256    0.3147   -2.0684 H   0  0  0  0  0  0  0  0  0  0  0  0
  1  2  1  0  0  0  0
  2  3  1  0  0  0  0
  1  4  4  0  0  0  0
  4  5  4  0  0  0  0
  5  6  4  0  0  0  0
  6  7  4  0  0  0  0
  1  8  4  0  0  0  0
  7  8  4  0  0  0  0
  8  9  1  0  0  0  0
  9 10  1  0  0  0  0
 10 11  1  0  0  0  0
 11 12  4  0  0  0  0
 12 13  4  0  0  0  0
 13 14  4  0  0  0  0
 14 15  4  0  0  0  0
 11 16  4  0  0  0  0
 15 16  4  0  0  0  0
 16 17  1  0  0  0  0
 17 18  1  0  0  0  0
 10 19  1  0  0  0  0
 19 20  4  0  0  0  0
 20 21  1  0  0  0  0
 21 22  4  0  0  0  0
 22 23  4  0  0  0  0
 23 24  4  0  0  0  0
 24 25  1  0  0  0  0
 25 26  1  0  0  0  0
 25 27  1  0  0  0  0
 25 28  1  0  0  0  0
 24 29  4  0  0  0  0
 21 30  4  0  0  0  0
 29 30  4  0  0  0  0
 20 31  2  0  0  0  0
 19 32  1  0  0  0  0
 32 33  1  0  0  0  0
 33 34  1  0  0  0  0
 33 35  2  0  0  0  0
  9 36  1  0  0  0  0
 32 36  1  0  0  0  0
 36 37  1  0  0  0  0
 37 38  1  0  0  0  0
 38 39  4  0  0  0  0
 39 40  4  0  0  0  0
 40 41  4  0  0  0  0
 41 42  1  0  0  0  0
 42 43  1  0  0  0  0
 42 44  1  0  0  0  0
 42 45  1  0  0  0  0
 41 46  4  0  0  0  0
 38 47  4  0  0  0  0
 46 47  4  0  0  0  0
 37 48  2  0  0  0  0
  3 49  1  0  0  0  0
  3 50  1  0  0  0  0
  3 51  1  0  0  0  0
  4 52  1  0  0  0  0
  5 53  1  0  0  0  0
  6 54  1  0  0  0  0
  7 55  1  0  0  0  0
  9 56  1  0  0  0  0
 10 57  1  0  0  0  0
 12 58  1  0  0  0  0
 13 59  1  0  0  0  0
 14 60  1  0  0  0  0
 15 61  1  0  0  0  0
 18 62  1  0  0  0  0
 18 63  1  0  0  0  0
 18 64  1  0  0  0  0
 22 65  1  0  0  0  0
 23 66  1  0  0  0  0
 26 67  1  0  0  0  0
 26 68  1  0  0  0  0
 26 69  1  0  0  0  0
 27 70  1  0  0  0  0
 27 71  1  0  0  0  0
 27 72  1  0  0  0  0
 28 73  1  0  0  0  0
 28 74  1  0  0  0  0
 28 75  1  0  0  0  0
 29 76  1  0  0  0  0
 30 77  1  0  0  0  0
 32 78  1  0  0  0  0
 34 79  1  0  0  0  0
 39 80  1  0  0  0  0
 40 81  1  0  0  0  0
 43 82  1  0  0  0  0
 43 83  1  0  0  0  0
 43 84  1  0  0  0  0
 44 85  1  0  0  0  0
 44 86  1  0  0  0  0
 44 87  1  0  0  0  0
 45 88  1  0  0  0  0
 45 89  1  0  0  0  0
 45 90  1  0  0  0  0
 46 91  1  0  0  0  0
 47 92  1  0  0  0  0
M  END
