88

C     -1.939217    4.399961   -0.170838
O     -1.634512    4.233241   -1.495838
C     -2.780580    4.250988   -2.341965
C     -2.695636    5.500618    0.250917
C     -3.028923    5.651991    1.596034
C     -2.610188    4.700784    2.519702
C     -1.833209    3.613812    2.104709
C     -1.444573    3.462882    0.756076
C     -0.578120    2.283859    0.298188
C      0.695587    2.075954    1.192622
C      1.988964    2.884691    1.124869
C      2.970103    2.594490    2.107842
C      4.197040    3.253016    2.139480
C      4.473931    4.223033    1.190103
C      3.519599    4.539082    0.219726
C      2.274875    3.889830    0.185856
O      1.310172    4.173755   -0.736786
C      1.452234    5.375550   -1.493216
N      0.909995    0.610894    1.187935
C      1.749364    0.154137    0.155856
C      2.653320   -0.983415    0.525734
C      2.846567   -1.370089    1.858232
C      3.697620   -2.431556    2.161880
C      4.357844   -3.111264    1.137485
C      4.188981   -2.740601   -0.207809
C      4.898279   -3.456494   -1.279804
C      4.803940   -4.853272   -1.397741
C      5.483718   -5.537173   -2.408753
C      6.271377   -4.836516   -3.317926
C      6.378512   -3.451483   -3.218793
C      5.694465   -2.767805   -2.209536
C      3.327651   -1.667728   -0.496264
O      1.792051    0.647774   -0.964979
C     -0.440091    0.020625    1.162386
C     -0.482397   -1.442878    0.623550
O     -0.534166   -2.356367    1.620697
O     -0.434678   -1.822512   -0.535602
N     -1.289263    0.991464    0.475172
C     -2.580030    0.773400    0.035810
C     -3.321513   -0.372749    0.595121
C     -3.687856   -1.426058   -0.251066
C     -4.391899   -2.532322    0.250297
C     -4.765887   -3.656406   -0.625629
C     -5.342479   -3.436273   -1.889204
C     -5.677483   -4.503809   -2.727996
C     -5.443799   -5.813169   -2.319453
C     -4.880411   -6.056228   -1.069254
C     -4.541977   -4.988530   -0.234268
C     -4.727343   -2.531175    1.617595
C     -4.378357   -1.467426    2.456845
C     -3.676024   -0.380514    1.945270
O     -3.185913    1.477191   -0.764226
H     -3.688885    3.893844   -1.843264
H     -2.583478    3.597529   -3.200233
H     -2.944390    5.268444   -2.717582
H     -3.031018    6.242282   -0.466492
H     -3.628078    6.500013    1.917009
H     -2.888838    4.803358    3.566772
H     -1.546009    2.885028    2.855945
H     -0.313240    2.340711   -0.761997
H      0.379099    2.248450    2.230126
H      2.776978    1.826252    2.855549
H      4.935072    2.998210    2.895846
H      5.433052    4.733560    1.195391
H      3.782257    5.299396   -0.509851
H      0.527912    5.541040   -2.061298
H      1.591444    6.240567   -0.831062
H      2.271922    5.291862   -2.217617
H      2.352514   -0.848974    2.672486
H      3.849013   -2.729525    3.197523
H      5.025173   -3.931289    1.395396
H      4.184280   -5.419917   -0.705807
H      5.391658   -6.617494   -2.487245
H      6.796972   -5.368965   -4.104932
H      6.995099   -2.900687   -3.924564
H      5.797153   -1.685910   -2.146136
H      3.167226   -1.365245   -1.531929
H     -0.784819    0.007167    2.204502
H     -0.539608   -3.209817    1.135119
H     -3.393856   -1.385007   -1.301317
H     -5.543211   -2.422261   -2.230857
H     -6.123036   -4.309794   -3.699392
H     -5.699444   -6.640360   -2.977267
H     -4.689315   -7.076993   -0.749386
H     -4.080643   -5.206695    0.726066
H     -5.292089   -3.361403    2.037775
H     -4.668892   -1.486582    3.504613
H     -3.427645    0.459996    2.584965
