
  xtb     03162221253D
 xtb: 6.3.3 (4ae9cef)
 80 86  0     0  0            999 V2000
   -1.8517    4.7245   -0.4446 C   0  0  0  0  0  0  0  0  0  0  0  0
   -0.8770    5.3858   -1.3769 C   0  0  0  0  0  0  0  0  0  0  0  0
   -1.2008    6.6515   -1.6683 F   0  0  0  0  0  0  0  0  0  0  0  0
    0.3745    5.4436   -0.8605 F   0  0  0  0  0  0  0  0  0  0  0  0
   -0.7443    4.7610   -2.5615 F   0  0  0  0  0  0  0  0  0  0  0  0
   -2.9426    5.4597    0.0028 C   0  0  0  0  0  0  0  0  0  0  0  0
   -3.8472    4.8974    0.8820 C   0  0  0  0  0  0  0  0  0  0  0  0
   -3.6597    3.5994    1.3234 C   0  0  0  0  0  0  0  0  0  0  0  0
   -2.5739    2.8682    0.8836 C   0  0  0  0  0  0  0  0  0  0  0  0
   -1.6595    3.4126   -0.0114 C   0  0  0  0  0  0  0  0  0  0  0  0
   -0.4817    2.5756   -0.4408 C   0  0  0  0  0  0  0  0  0  0  0  0
    0.4885    2.3030    0.7289 C   0  0  0  0  0  0  0  0  0  0  0  0
    1.6716    3.2359    0.7235 C   0  0  0  0  0  0  0  0  0  0  0  0
    1.8484    4.2557    1.6579 C   0  0  0  0  0  0  0  0  0  0  0  0
    0.8408    4.5010    2.7467 C   0  0  0  0  0  0  0  0  0  0  0  0
    0.6483    3.4539    3.5645 F   0  0  0  0  0  0  0  0  0  0  0  0
   -0.3819    4.8073    2.2540 F   0  0  0  0  0  0  0  0  0  0  0  0
    1.1712    5.5275    3.5424 F   0  0  0  0  0  0  0  0  0  0  0  0
    2.9578    5.0894    1.5850 C   0  0  0  0  0  0  0  0  0  0  0  0
    3.8967    4.9170    0.5865 C   0  0  0  0  0  0  0  0  0  0  0  0
    3.7266    3.9120   -0.3491 C   0  0  0  0  0  0  0  0  0  0  0  0
    2.6229    3.0852   -0.2792 C   0  0  0  0  0  0  0  0  0  0  0  0
    0.9270    0.9316    0.4855 N   0  0  0  0  0  0  0  0  0  0  0  0
    1.8744    0.3892    1.3145 C   0  0  0  0  0  0  0  0  0  0  0  0
    2.2929   -0.9982    1.0796 C   0  0  0  0  0  0  0  0  0  0  0  0
    2.7650   -1.8199    2.0662 C   0  0  0  0  0  0  0  0  0  0  0  0
    3.1992   -3.0771    1.5953 C   0  0  0  0  0  0  0  0  0  0  0  0
    3.7536   -4.1783    2.4441 C   0  0  0  0  0  0  0  0  0  0  0  0
    3.7683   -5.4967    1.6714 C   0  0  0  0  0  0  0  0  0  0  0  0
    4.3729   -5.2941    0.2838 C   0  0  0  0  0  0  0  0  0  0  0  0
    3.4727   -4.3880   -0.5586 C   0  0  0  0  0  0  0  0  0  0  0  0
    3.0902   -3.1915    0.2401 C   0  0  0  0  0  0  0  0  0  0  0  0
    2.4234   -1.7657   -0.4752 S   0  0  0  0  0  0  0  0  0  0  0  0
    2.3794    1.0519    2.1993 O   0  0  0  0  0  0  0  0  0  0  0  0
   -0.0406    0.2090   -0.3026 C   0  0  0  0  0  0  0  0  0  0  0  0
   -0.8717   -0.7227    0.6075 C   0  0  0  0  0  0  0  0  0  0  0  0
   -0.5851   -2.0054    0.4139 O   0  0  0  0  0  0  0  0  0  0  0  0
   -1.6522   -0.3286    1.4283 O   0  0  0  0  0  0  0  0  0  0  0  0
   -0.8843    1.2373   -0.8569 N   0  0  0  0  0  0  0  0  0  0  0  0
   -2.0210    0.9940   -1.5635 C   0  0  0  0  0  0  0  0  0  0  0  0
   -2.3041   -0.4458   -1.7874 C   0  0  0  0  0  0  0  0  0  0  0  0
   -3.4033   -1.1199   -1.3486 C   0  0  0  0  0  0  0  0  0  0  0  0
   -3.4228   -2.4780   -1.7499 C   0  0  0  0  0  0  0  0  0  0  0  0
   -2.3456   -2.8124   -2.5133 C   0  0  0  0  0  0  0  0  0  0  0  0
   -2.0916   -4.1533   -3.1079 C   0  0  0  0  0  0  0  0  0  0  0  0
   -2.9592   -5.1942   -2.3974 C   0  0  0  0  0  0  0  0  0  0  0  0
   -4.4000   -4.6994   -2.2924 C   0  0  0  0  0  0  0  0  0  0  0  0
   -4.4808   -3.4725   -1.3846 C   0  0  0  0  0  0  0  0  0  0  0  0
   -1.2837   -1.4649   -2.7553 S   0  0  0  0  0  0  0  0  0  0  0  0
   -2.7540    1.8735   -1.9566 O   0  0  0  0  0  0  0  0  0  0  0  0
   -3.0789    6.4733   -0.3401 H   0  0  0  0  0  0  0  0  0  0  0  0
   -4.6929    5.4744    1.2222 H   0  0  0  0  0  0  0  0  0  0  0  0
   -4.3587    3.1542    2.0149 H   0  0  0  0  0  0  0  0  0  0  0  0
   -2.4365    1.8545    1.2299 H   0  0  0  0  0  0  0  0  0  0  0  0
    0.0613    3.0415   -1.2699 H   0  0  0  0  0  0  0  0  0  0  0  0
   -0.0511    2.3448    1.6811 H   0  0  0  0  0  0  0  0  0  0  0  0
    3.0830    5.8743    2.3143 H   0  0  0  0  0  0  0  0  0  0  0  0
    4.7557    5.5678    0.5403 H   0  0  0  0  0  0  0  0  0  0  0  0
    4.4526    3.7724   -1.1355 H   0  0  0  0  0  0  0  0  0  0  0  0
    2.4947    2.2986   -1.0082 H   0  0  0  0  0  0  0  0  0  0  0  0
    2.7847   -1.5193    3.0983 H   0  0  0  0  0  0  0  0  0  0  0  0
    4.7727   -3.9137    2.7425 H   0  0  0  0  0  0  0  0  0  0  0  0
    3.1625   -4.2751    3.3572 H   0  0  0  0  0  0  0  0  0  0  0  0
    2.7470   -5.8692    1.5659 H   0  0  0  0  0  0  0  0  0  0  0  0
    4.3422   -6.2408    2.2257 H   0  0  0  0  0  0  0  0  0  0  0  0
    4.4976   -6.2543   -0.2187 H   0  0  0  0  0  0  0  0  0  0  0  0
    5.3578   -4.8344    0.3851 H   0  0  0  0  0  0  0  0  0  0  0  0
    3.9794   -4.0855   -1.4776 H   0  0  0  0  0  0  0  0  0  0  0  0
    2.5680   -4.9323   -0.8507 H   0  0  0  0  0  0  0  0  0  0  0  0
    0.4464   -0.3887   -1.0854 H   0  0  0  0  0  0  0  0  0  0  0  0
   -1.0979   -2.5720    1.0140 H   0  0  0  0  0  0  0  0  0  0  0  0
   -4.1630   -0.6604   -0.7419 H   0  0  0  0  0  0  0  0  0  0  0  0
   -1.0329   -4.4095   -3.0276 H   0  0  0  0  0  0  0  0  0  0  0  0
   -2.3412   -4.1309   -4.1738 H   0  0  0  0  0  0  0  0  0  0  0  0
   -2.5656   -5.3724   -1.3944 H   0  0  0  0  0  0  0  0  0  0  0  0
   -2.9232   -6.1360   -2.9463 H   0  0  0  0  0  0  0  0  0  0  0  0
   -5.0414   -5.4901   -1.8996 H   0  0  0  0  0  0  0  0  0  0  0  0
   -4.7603   -4.4371   -3.2889 H   0  0  0  0  0  0  0  0  0  0  0  0
   -4.3426   -3.7744   -0.3408 H   0  0  0  0  0  0  0  0  0  0  0  0
   -5.4653   -3.0068   -1.4599 H   0  0  0  0  0  0  0  0  0  0  0  0
  1  2  1  0  0  0  0
  2  3  1  0  0  0  0
  2  4  1  0  0  0  0
  2  5  1  0  0  0  0
  1  6  4  0  0  0  0
  6  7  4  0  0  0  0
  7  8  4  0  0  0  0
  8  9  4  0  0  0  0
  1 10  4  0  0  0  0
  9 10  4  0  0  0  0
 10 11  1  0  0  0  0
 11 12  1  0  0  0  0
 12 13  1  0  0  0  0
 13 14  4  0  0  0  0
 14 15  1  0  0  0  0
 15 16  1  0  0  0  0
 15 17  1  0  0  0  0
 15 18  1  0  0  0  0
 14 19  4  0  0  0  0
 19 20  4  0  0  0  0
 20 21  4  0  0  0  0
 13 22  4  0  0  0  0
 21 22  4  0  0  0  0
 12 23  1  0  0  0  0
 23 24  1  0  0  0  0
 24 25  1  0  0  0  0
 25 26  2  0  0  0  0
 26 27  4  0  0  0  0
 27 28  1  0  0  0  0
 28 29  1  0  0  0  0
 29 30  1  0  0  0  0
 30 31  1  0  0  0  0
 27 32  2  0  0  0  0
 31 32  1  0  0  0  0
 25 33  1  0  0  0  0
 32 33  1  0  0  0  0
 24 34  2  0  0  0  0
 23 35  1  0  0  0  0
 35 36  1  0  0  0  0
 36 37  1  0  0  0  0
 36 38  2  0  0  0  0
 11 39  1  0  0  0  0
 35 39  1  0  0  0  0
 39 40  1  0  0  0  0
 40 41  1  0  0  0  0
 41 42  2  0  0  0  0
 42 43  4  0  0  0  0
 43 44  2  0  0  0  0
 44 45  1  0  0  0  0
 45 46  1  0  0  0  0
 46 47  1  0  0  0  0
 43 48  1  0  0  0  0
 47 48  1  0  0  0  0
 41 49  1  0  0  0  0
 44 49  1  0  0  0  0
 40 50  2  0  0  0  0
  6 51  1  0  0  0  0
  7 52  1  0  0  0  0
  8 53  1  0  0  0  0
  9 54  1  0  0  0  0
 11 55  1  0  0  0  0
 12 56  1  0  0  0  0
 19 57  1  0  0  0  0
 20 58  1  0  0  0  0
 21 59  1  0  0  0  0
 22 60  1  0  0  0  0
 26 61  1  0  0  0  0
 28 62  1  0  0  0  0
 28 63  1  0  0  0  0
 29 64  1  0  0  0  0
 29 65  1  0  0  0  0
 30 66  1  0  0  0  0
 30 67  1  0  0  0  0
 31 68  1  0  0  0  0
 31 69  1  0  0  0  0
 35 70  1  0  0  0  0
 37 71  1  0  0  0  0
 42 72  1  0  0  0  0
 45 73  1  0  0  0  0
 45 74  1  0  0  0  0
 46 75  1  0  0  0  0
 46 76  1  0  0  0  0
 47 77  1  0  0  0  0
 47 78  1  0  0  0  0
 48 79  1  0  0  0  0
 48 80  1  0  0  0  0
M  END
