54

C     -2.566671   -1.065269   -1.860294
C     -3.188265   -1.768158   -2.896485
C     -3.026173   -3.145542   -3.004974
C     -2.254119   -3.824364   -2.068442
C     -1.633710   -3.122057   -1.032467
C     -1.754214   -1.722968   -0.923240
C     -1.067807   -1.007842    0.241739
C      0.462580   -1.317779    0.327368
C      0.894559   -1.716708    1.736051
C      0.535977   -0.968544    2.870436
C      0.952273   -1.360172    4.144574
C      1.741390   -2.496393    4.303300
C      2.119269   -3.239921    3.188507
C      1.701188   -2.852315    1.914284
N      1.124320   -0.079114   -0.084014
C      2.480346   -0.035903   -0.349998
C      3.073299    1.280607   -0.567622
C      3.039089    2.285183    0.387594
S      3.812661    3.722519   -0.124081
C      4.278066    3.005729   -1.604093
C      3.833604    1.708783   -1.697589
Br     4.176457    0.614346   -3.202252
O      3.175123   -1.047281   -0.381229
C      0.154232    0.955927   -0.396746
C     -0.059676    1.189806   -1.921589
O      0.684115    0.397434   -2.720446
O     -0.853781    1.974617   -2.419742
N     -1.092534    0.458816    0.165230
C     -2.149974    1.192636    0.660326
C     -2.016527    2.642358    0.670022
C     -1.164142    3.313000    1.532839
S     -1.211855    5.011587    1.328067
C     -2.431126    4.886217    0.135965
C     -2.771886    3.576224   -0.099106
Br    -4.102776    3.061033   -1.340528
O     -3.158520    0.659554    1.111538
H     -2.750395    0.003813   -1.800186
H     -3.812413   -1.236458   -3.610755
H     -3.515797   -3.690682   -3.807463
H     -2.142413   -4.903601   -2.136674
H     -1.059109   -3.688632   -0.301253
H     -1.608398   -1.324062    1.143373
H      0.764904   -2.101735   -0.377214
H     -0.074959   -0.074368    2.780380
H      0.661517   -0.777520    5.015145
H      2.068513   -2.798817    5.294672
H      2.748454   -4.118347    3.308131
H      2.030059   -3.434867    1.054942
H      2.595619    2.243695    1.374053
H      4.858011    3.567838   -2.323569
H      0.460413    1.903712    0.041677
H      0.386157    0.601351   -3.632263
H     -0.505854    2.886663    2.278196
H     -2.839100    5.775974   -0.324095
