
  xtb     03172201183D
 xtb: 6.3.3 (4ae9cef)
 54 58  0     0  0            999 V2000
   -2.3359   -1.0647   -1.9246 C   0  0  0  0  0  0  0  0  0  0  0  0
   -2.8970   -1.7493   -2.9897 C   0  0  0  0  0  0  0  0  0  0  0  0
   -2.7919   -3.1255   -3.0677 C   0  0  0  0  0  0  0  0  0  0  0  0
   -2.1315   -3.8197   -2.0670 C   0  0  0  0  0  0  0  0  0  0  0  0
   -1.5722   -3.1373   -1.0036 C   0  0  0  0  0  0  0  0  0  0  0  0
   -1.6601   -1.7508   -0.9303 C   0  0  0  0  0  0  0  0  0  0  0  0
   -1.0301   -1.0641    0.2616 C   0  0  0  0  0  0  0  0  0  0  0  0
    0.4775   -1.3632    0.3827 C   0  0  0  0  0  0  0  0  0  0  0  0
    0.8899   -1.7764    1.7739 C   0  0  0  0  0  0  0  0  0  0  0  0
    0.6607   -0.9308    2.8530 C   0  0  0  0  0  0  0  0  0  0  0  0
    1.0382   -1.3074    4.1288 C   0  0  0  0  0  0  0  0  0  0  0  0
    1.6484   -2.5328    4.3380 C   0  0  0  0  0  0  0  0  0  0  0  0
    1.8829   -3.3770    3.2667 C   0  0  0  0  0  0  0  0  0  0  0  0
    1.5071   -2.9997    1.9892 C   0  0  0  0  0  0  0  0  0  0  0  0
    1.1122   -0.1042    0.0116 N   0  0  0  0  0  0  0  0  0  0  0  0
    2.4162   -0.0636   -0.3545 C   0  0  0  0  0  0  0  0  0  0  0  0
    2.9036    1.3042   -0.7140 C   0  0  0  0  0  0  0  0  0  0  0  0
    3.1037    2.3202    0.1698 C   0  0  0  0  0  0  0  0  0  0  0  0
    3.7297    3.7330   -0.5775 S   0  0  0  0  0  0  0  0  0  0  0  0
    3.7383    2.9676   -2.1090 C   0  0  0  0  0  0  0  0  0  0  0  0
    3.2874    1.6882   -2.0272 C   0  0  0  0  0  0  0  0  0  0  0  0
    3.1281    0.5528   -3.5250 Br  0  0  0  0  0  0  0  0  0  0  0  0
    3.1243   -1.0434   -0.3733 O   0  0  0  0  0  0  0  0  0  0  0  0
    0.1834    0.9915   -0.0687 C   0  0  0  0  0  0  0  0  0  0  0  0
    0.2023    1.6425   -1.4736 C   0  0  0  0  0  0  0  0  0  0  0  0
    0.0604    0.7466   -2.4268 O   0  0  0  0  0  0  0  0  0  0  0  0
    0.3229    2.8267   -1.6392 O   0  0  0  0  0  0  0  0  0  0  0  0
   -1.0921    0.3912    0.2309 N   0  0  0  0  0  0  0  0  0  0  0  0
   -2.1663    1.0557    0.7335 C   0  0  0  0  0  0  0  0  0  0  0  0
   -2.0084    2.5463    0.7541 C   0  0  0  0  0  0  0  0  0  0  0  0
   -1.5832    3.2520    1.8369 C   0  0  0  0  0  0  0  0  0  0  0  0
   -1.5396    4.9462    1.5499 S   0  0  0  0  0  0  0  0  0  0  0  0
   -2.1154    4.7269   -0.0479 C   0  0  0  0  0  0  0  0  0  0  0  0
   -2.3212    3.4137   -0.3271 C   0  0  0  0  0  0  0  0  0  0  0  0
   -2.9767    2.8195   -1.9887 Br  0  0  0  0  0  0  0  0  0  0  0  0
   -3.1576    0.4916    1.1324 O   0  0  0  0  0  0  0  0  0  0  0  0
   -2.4428    0.0055   -1.8726 H   0  0  0  0  0  0  0  0  0  0  0  0
   -3.4208   -1.1986   -3.7563 H   0  0  0  0  0  0  0  0  0  0  0  0
   -3.2287   -3.6582   -3.8990 H   0  0  0  0  0  0  0  0  0  0  0  0
   -2.0554   -4.8958   -2.1134 H   0  0  0  0  0  0  0  0  0  0  0  0
   -1.0705   -3.6828   -0.2169 H   0  0  0  0  0  0  0  0  0  0  0  0
   -1.5663   -1.3942    1.1617 H   0  0  0  0  0  0  0  0  0  0  0  0
    0.7938   -2.1271   -0.3354 H   0  0  0  0  0  0  0  0  0  0  0  0
    0.1807    0.0254    2.6965 H   0  0  0  0  0  0  0  0  0  0  0  0
    0.8553   -0.6444    4.9616 H   0  0  0  0  0  0  0  0  0  0  0  0
    1.9421   -2.8263    5.3346 H   0  0  0  0  0  0  0  0  0  0  0  0
    2.3629   -4.3309    3.4249 H   0  0  0  0  0  0  0  0  0  0  0  0
    1.7021   -3.6526    1.1518 H   0  0  0  0  0  0  0  0  0  0  0  0
    2.9368    2.3103    1.2286 H   0  0  0  0  0  0  0  0  0  0  0  0
    4.0686    3.4925   -2.9823 H   0  0  0  0  0  0  0  0  0  0  0  0
    0.4205    1.7938    0.6523 H   0  0  0  0  0  0  0  0  0  0  0  0
    0.0513    1.1410   -3.3158 H   0  0  0  0  0  0  0  0  0  0  0  0
   -1.2999    2.8697    2.7976 H   0  0  0  0  0  0  0  0  0  0  0  0
   -2.2678    5.5665   -0.6956 H   0  0  0  0  0  0  0  0  0  0  0  0
  1  2  4  0  0  0  0
  2  3  4  0  0  0  0
  3  4  4  0  0  0  0
  4  5  4  0  0  0  0
  1  6  4  0  0  0  0
  5  6  4  0  0  0  0
  6  7  1  0  0  0  0
  7  8  1  0  0  0  0
  8  9  1  0  0  0  0
  9 10  4  0  0  0  0
 10 11  4  0  0  0  0
 11 12  4  0  0  0  0
 12 13  4  0  0  0  0
  9 14  4  0  0  0  0
 13 14  4  0  0  0  0
  8 15  1  0  0  0  0
 15 16  4  0  0  0  0
 16 17  1  0  0  0  0
 17 18  2  0  0  0  0
 18 19  1  0  0  0  0
 19 20  1  0  0  0  0
 17 21  4  0  0  0  0
 20 21  2  0  0  0  0
 21 22  1  0  0  0  0
 16 23  2  0  0  0  0
 15 24  1  0  0  0  0
 24 25  1  0  0  0  0
 25 26  1  0  0  0  0
 25 27  2  0  0  0  0
  7 28  1  0  0  0  0
 24 28  1  0  0  0  0
 28 29  4  0  0  0  0
 29 30  1  0  0  0  0
 30 31  2  0  0  0  0
 31 32  1  0  0  0  0
 32 33  1  0  0  0  0
 30 34  4  0  0  0  0
 33 34  2  0  0  0  0
 34 35  1  0  0  0  0
 29 36  2  0  0  0  0
  1 37  1  0  0  0  0
  2 38  1  0  0  0  0
  3 39  1  0  0  0  0
  4 40  1  0  0  0  0
  5 41  1  0  0  0  0
  7 42  1  0  0  0  0
  8 43  1  0  0  0  0
 10 44  1  0  0  0  0
 11 45  1  0  0  0  0
 12 46  1  0  0  0  0
 13 47  1  0  0  0  0
 14 48  1  0  0  0  0
 18 49  1  0  0  0  0
 20 50  1  0  0  0  0
 24 51  1  0  0  0  0
 26 52  1  0  0  0  0
 31 53  1  0  0  0  0
 33 54  1  0  0  0  0
M  END
