
  xtb     03162221483D
 xtb: 6.3.3 (4ae9cef)
 76 80  0     0  0            999 V2000
    0.9865   -2.7445    3.0070 C   0  0  0  0  0  0  0  0  0  0  0  0
    2.1654   -2.7193    2.3425 O   0  0  0  0  0  0  0  0  0  0  0  0
    3.3675   -2.7924    3.0666 C   0  0  0  0  0  0  0  0  0  0  0  0
    0.8601   -2.8702    4.3849 C   0  0  0  0  0  0  0  0  0  0  0  0
   -0.3942   -2.8864    4.9707 C   0  0  0  0  0  0  0  0  0  0  0  0
   -1.5279   -2.7806    4.1905 C   0  0  0  0  0  0  0  0  0  0  0  0
   -1.4079   -2.6534    2.8145 C   0  0  0  0  0  0  0  0  0  0  0  0
   -0.1662   -2.6335    2.2046 C   0  0  0  0  0  0  0  0  0  0  0  0
    0.0624   -2.4449    0.7211 C   0  0  0  0  0  0  0  0  0  0  0  0
   -1.2010   -2.3203   -0.1473 C   0  0  0  0  0  0  0  0  0  0  0  0
   -0.9747   -2.8644   -1.5396 C   0  0  0  0  0  0  0  0  0  0  0  0
   -1.2926   -4.1976   -1.7536 C   0  0  0  0  0  0  0  0  0  0  0  0
   -1.1058   -4.8027   -2.9822 C   0  0  0  0  0  0  0  0  0  0  0  0
   -0.6032   -4.0549   -4.0285 C   0  0  0  0  0  0  0  0  0  0  0  0
   -0.2806   -2.7234   -3.8398 C   0  0  0  0  0  0  0  0  0  0  0  0
   -0.4456   -2.1155   -2.5992 C   0  0  0  0  0  0  0  0  0  0  0  0
   -0.1172   -0.8083   -2.3586 O   0  0  0  0  0  0  0  0  0  0  0  0
    0.3713   -0.0402   -3.4310 C   0  0  0  0  0  0  0  0  0  0  0  0
   -1.4721   -0.8906   -0.0997 N   0  0  0  0  0  0  0  0  0  0  0  0
   -2.6804   -0.4022   -0.4720 C   0  0  0  0  0  0  0  0  0  0  0  0
   -2.8445    1.0804   -0.3964 C   0  0  0  0  0  0  0  0  0  0  0  0
   -3.8918    1.6071    0.3550 C   0  0  0  0  0  0  0  0  0  0  0  0
   -4.0890    2.9679    0.4222 C   0  0  0  0  0  0  0  0  0  0  0  0
   -3.2568    3.8403   -0.2835 C   0  0  0  0  0  0  0  0  0  0  0  0
   -3.5340    5.1652   -0.1452 O   0  0  0  0  0  0  0  0  0  0  0  0
   -2.7495    6.0971   -0.8486 C   0  0  0  0  0  0  0  0  0  0  0  0
   -2.2330    3.3159   -1.0652 C   0  0  0  0  0  0  0  0  0  0  0  0
   -2.0348    1.9460   -1.1156 C   0  0  0  0  0  0  0  0  0  0  0  0
   -3.5771   -1.1387   -0.8346 O   0  0  0  0  0  0  0  0  0  0  0  0
   -0.3703   -0.1868    0.5244 C   0  0  0  0  0  0  0  0  0  0  0  0
   -0.6884    0.2233    1.9776 C   0  0  0  0  0  0  0  0  0  0  0  0
   -1.9854    0.1986    2.2549 O   0  0  0  0  0  0  0  0  0  0  0  0
    0.1478    0.5716    2.7669 O   0  0  0  0  0  0  0  0  0  0  0  0
    0.6992   -1.1458    0.5141 N   0  0  0  0  0  0  0  0  0  0  0  0
    1.8753   -1.0603   -0.1833 C   0  0  0  0  0  0  0  0  0  0  0  0
    2.4043    0.3053   -0.4342 C   0  0  0  0  0  0  0  0  0  0  0  0
    2.2879    1.3527    0.4716 C   0  0  0  0  0  0  0  0  0  0  0  0
    2.8319    2.5948    0.1902 C   0  0  0  0  0  0  0  0  0  0  0  0
    3.5061    2.8101   -1.0078 C   0  0  0  0  0  0  0  0  0  0  0  0
    4.0586    3.9915   -1.3917 O   0  0  0  0  0  0  0  0  0  0  0  0
    3.9857    5.0893   -0.5141 C   0  0  0  0  0  0  0  0  0  0  0  0
    3.6558    1.7479   -1.9042 C   0  0  0  0  0  0  0  0  0  0  0  0
    3.1252    0.5134   -1.6111 C   0  0  0  0  0  0  0  0  0  0  0  0
    2.4751   -2.0526   -0.5430 O   0  0  0  0  0  0  0  0  0  0  0  0
    3.4528   -3.7375    3.6132 H   0  0  0  0  0  0  0  0  0  0  0  0
    4.1553   -2.7357    2.3172 H   0  0  0  0  0  0  0  0  0  0  0  0
    3.4668   -1.9546    3.7641 H   0  0  0  0  0  0  0  0  0  0  0  0
    1.7348   -2.9518    5.0101 H   0  0  0  0  0  0  0  0  0  0  0  0
   -0.4778   -2.9807    6.0432 H   0  0  0  0  0  0  0  0  0  0  0  0
   -2.5073   -2.7935    4.6441 H   0  0  0  0  0  0  0  0  0  0  0  0
   -2.3079   -2.5560    2.2275 H   0  0  0  0  0  0  0  0  0  0  0  0
    0.7488   -3.2126    0.3513 H   0  0  0  0  0  0  0  0  0  0  0  0
   -2.0543   -2.8617    0.2698 H   0  0  0  0  0  0  0  0  0  0  0  0
   -1.6973   -4.7703   -0.9319 H   0  0  0  0  0  0  0  0  0  0  0  0
   -1.3582   -5.8424   -3.1207 H   0  0  0  0  0  0  0  0  0  0  0  0
   -0.4592   -4.5012   -5.0011 H   0  0  0  0  0  0  0  0  0  0  0  0
    0.1059   -2.1640   -4.6762 H   0  0  0  0  0  0  0  0  0  0  0  0
    0.6288    0.9331   -3.0132 H   0  0  0  0  0  0  0  0  0  0  0  0
   -0.3886    0.0852   -4.2101 H   0  0  0  0  0  0  0  0  0  0  0  0
    1.2731   -0.4795   -3.8664 H   0  0  0  0  0  0  0  0  0  0  0  0
   -4.5446    0.9337    0.8881 H   0  0  0  0  0  0  0  0  0  0  0  0
   -4.8904    3.3895    1.0081 H   0  0  0  0  0  0  0  0  0  0  0  0
   -3.1517    7.0753   -0.5899 H   0  0  0  0  0  0  0  0  0  0  0  0
   -2.8241    5.9509   -1.9309 H   0  0  0  0  0  0  0  0  0  0  0  0
   -1.6982    6.0478   -0.5464 H   0  0  0  0  0  0  0  0  0  0  0  0
   -1.5888    3.9592   -1.6442 H   0  0  0  0  0  0  0  0  0  0  0  0
   -1.2562    1.5495   -1.7492 H   0  0  0  0  0  0  0  0  0  0  0  0
   -0.0922    0.7234   -0.0185 H   0  0  0  0  0  0  0  0  0  0  0  0
   -2.1466    0.4571    3.1773 H   0  0  0  0  0  0  0  0  0  0  0  0
    1.8018    1.1971    1.4219 H   0  0  0  0  0  0  0  0  0  0  0  0
    2.7297    3.3827    0.9197 H   0  0  0  0  0  0  0  0  0  0  0  0
    4.4956    5.9063   -1.0220 H   0  0  0  0  0  0  0  0  0  0  0  0
    4.4922    4.8803    0.4334 H   0  0  0  0  0  0  0  0  0  0  0  0
    2.9485    5.3783   -0.3155 H   0  0  0  0  0  0  0  0  0  0  0  0
    4.2041    1.9215   -2.8167 H   0  0  0  0  0  0  0  0  0  0  0  0
    3.2630   -0.3178   -2.2852 H   0  0  0  0  0  0  0  0  0  0  0  0
  1  2  1  0  0  0  0
  2  3  1  0  0  0  0
  1  4  4  0  0  0  0
  4  5  4  0  0  0  0
  5  6  4  0  0  0  0
  6  7  4  0  0  0  0
  1  8  4  0  0  0  0
  7  8  4  0  0  0  0
  8  9  1  0  0  0  0
  9 10  1  0  0  0  0
 10 11  1  0  0  0  0
 11 12  4  0  0  0  0
 12 13  4  0  0  0  0
 13 14  4  0  0  0  0
 14 15  4  0  0  0  0
 11 16  4  0  0  0  0
 15 16  4  0  0  0  0
 16 17  1  0  0  0  0
 17 18  1  0  0  0  0
 10 19  1  0  0  0  0
 19 20  4  0  0  0  0
 20 21  1  0  0  0  0
 21 22  4  0  0  0  0
 22 23  4  0  0  0  0
 23 24  4  0  0  0  0
 24 25  1  0  0  0  0
 25 26  1  0  0  0  0
 24 27  4  0  0  0  0
 21 28  4  0  0  0  0
 27 28  4  0  0  0  0
 20 29  2  0  0  0  0
 19 30  1  0  0  0  0
 30 31  1  0  0  0  0
 31 32  1  0  0  0  0
 31 33  2  0  0  0  0
  9 34  1  0  0  0  0
 30 34  1  0  0  0  0
 34 35  1  0  0  0  0
 35 36  1  0  0  0  0
 36 37  4  0  0  0  0
 37 38  4  0  0  0  0
 38 39  4  0  0  0  0
 39 40  1  0  0  0  0
 40 41  1  0  0  0  0
 39 42  4  0  0  0  0
 36 43  4  0  0  0  0
 42 43  4  0  0  0  0
 35 44  2  0  0  0  0
  3 45  1  0  0  0  0
  3 46  1  0  0  0  0
  3 47  1  0  0  0  0
  4 48  1  0  0  0  0
  5 49  1  0  0  0  0
  6 50  1  0  0  0  0
  7 51  1  0  0  0  0
  9 52  1  0  0  0  0
 10 53  1  0  0  0  0
 12 54  1  0  0  0  0
 13 55  1  0  0  0  0
 14 56  1  0  0  0  0
 15 57  1  0  0  0  0
 18 58  1  0  0  0  0
 18 59  1  0  0  0  0
 18 60  1  0  0  0  0
 22 61  1  0  0  0  0
 23 62  1  0  0  0  0
 26 63  1  0  0  0  0
 26 64  1  0  0  0  0
 26 65  1  0  0  0  0
 27 66  1  0  0  0  0
 28 67  1  0  0  0  0
 30 68  1  0  0  0  0
 32 69  1  0  0  0  0
 37 70  1  0  0  0  0
 38 71  1  0  0  0  0
 41 72  1  0  0  0  0
 41 73  1  0  0  0  0
 41 74  1  0  0  0  0
 42 75  1  0  0  0  0
 43 76  1  0  0  0  0
M  END
