62

C      1.482065   -3.029875    0.029178
C      1.763499   -2.508177    1.422720
F      2.070952   -1.183867    1.480550
F      2.803399   -3.139345    2.040314
F      0.691548   -2.675075    2.248232
C      1.832997   -4.384017   -0.199292
C      1.628526   -4.999626   -1.431105
C      1.065893   -4.277139   -2.468305
C      0.694200   -2.948448   -2.265017
C      0.873468   -2.294664   -1.020956
C      0.396436   -0.840124   -0.972253
C     -0.671592   -0.534308    0.123526
C     -2.087796   -1.088590    0.042059
C     -2.942526   -1.141907    1.178005
C     -2.588475   -0.635822    2.569475
F     -3.174806    0.564311    2.836551
F     -3.028190   -1.479156    3.550220
F     -1.262328   -0.468007    2.814159
C     -4.250726   -1.657087    1.028258
C     -4.717573   -2.108144   -0.201754
C     -3.891411   -2.043743   -1.312701
C     -2.596282   -1.537786   -1.193757
N     -0.590378    0.920107    0.305496
C     -1.460784    1.646620   -0.529795
C     -2.288595    2.607153    0.169388
C     -3.267969    3.469362   -0.291248
C     -3.728715    4.204067    0.830733
C     -3.004783    3.743693    1.906222
C     -3.009005    4.106059    3.278331
N     -3.010800    4.420881    4.395931
O     -2.128834    2.779659    1.519023
O     -1.493338    1.474477   -1.745604
C      0.834474    1.267461    0.096460
C      1.031641    2.724610   -0.449292
O      1.560767    2.784822   -1.688246
O      0.679114    3.752940    0.109475
N      1.419661    0.159318   -0.670287
C      2.691917    0.145708   -1.224779
C      3.709478    0.991919   -0.622272
C      4.042795    1.286733    0.690586
C      5.138890    2.185868    0.647767
C      5.420692    2.373559   -0.684345
C      6.400416    3.165740   -1.339728
N      7.201159    3.832562   -1.852513
O      4.573972    1.648580   -1.460274
O      2.952213   -0.582353   -2.181214
H      2.282794   -4.973017    0.600577
H      1.920003   -6.036678   -1.583260
H      0.921484   -4.739339   -3.442581
H      0.274455   -2.410273   -3.114290
H      0.018429   -0.551523   -1.960116
H     -0.261374   -0.945293    1.045562
H     -4.919917   -1.698559    1.889005
H     -5.727466   -2.499169   -0.293461
H     -4.255480   -2.381445   -2.280675
H     -2.002286   -1.484693   -2.103340
H     -3.594716    3.555641   -1.319907
H     -4.485911    4.976464    0.848350
H      1.296458    1.240281    1.088609
H      1.538873    3.731109   -1.942906
H      3.568748    0.885713    1.576784
H      5.660641    2.631832    1.483727
