19

C     -3.053648    1.154979   -0.533478
C     -2.203638    0.493586    0.263199
C     -1.397451   -0.700956   -0.161764
C      0.088946   -0.469248   -0.017955
C      0.792771    0.244690   -1.001640
C      2.162696    0.472255   -0.864526
C      2.827959   -0.008515    0.256501
F      4.142936    0.210818    0.387916
C      2.149415   -0.710821    1.245166
C      0.779130   -0.939602    1.110665
H     -3.607470    2.012193   -0.162528
H     -3.215039    0.862890   -1.566401
H     -2.079548    0.826637    1.291846
H     -1.615858   -0.979869   -1.200589
H     -1.697934   -1.562888    0.446976
H      0.272288    0.629464   -1.876142
H      2.712193    1.022580   -1.621118
H      2.689991   -1.072939    2.113528
H      0.252263   -1.485254    1.890342
