
  xtb     03172201343D
 xtb: 6.3.3 (4ae9cef)
 66 72  0     0  0            999 V2000
   -2.6133   -2.2116    0.8645 C   0  0  0  0  0  0  0  0  0  0  0  0
   -3.9130   -2.5166    0.5857 C   0  0  0  0  0  0  0  0  0  0  0  0
   -4.3990   -2.4602   -0.7384 C   0  0  0  0  0  0  0  0  0  0  0  0
   -5.7365   -2.7641   -1.0648 C   0  0  0  0  0  0  0  0  0  0  0  0
   -6.1712   -2.6919   -2.3588 C   0  0  0  0  0  0  0  0  0  0  0  0
   -5.2899   -2.3112   -3.3832 C   0  0  0  0  0  0  0  0  0  0  0  0
   -3.9867   -2.0130   -3.0989 C   0  0  0  0  0  0  0  0  0  0  0  0
   -3.5073   -2.0811   -1.7746 C   0  0  0  0  0  0  0  0  0  0  0  0
   -2.1680   -1.7722   -1.4563 C   0  0  0  0  0  0  0  0  0  0  0  0
   -1.7222   -1.8321   -0.1630 C   0  0  0  0  0  0  0  0  0  0  0  0
   -0.3248   -1.4666    0.2674 C   0  0  0  0  0  0  0  0  0  0  0  0
    0.6538   -1.0340   -0.8380 C   0  0  0  0  0  0  0  0  0  0  0  0
    2.0555   -1.1133   -0.2775 C   0  0  0  0  0  0  0  0  0  0  0  0
    2.6862   -0.0211    0.2555 C   0  0  0  0  0  0  0  0  0  0  0  0
    3.9295   -0.1411    0.9077 C   0  0  0  0  0  0  0  0  0  0  0  0
    4.5710    0.9675    1.4968 C   0  0  0  0  0  0  0  0  0  0  0  0
    5.7606    0.8164    2.1520 C   0  0  0  0  0  0  0  0  0  0  0  0
    6.3655   -0.4471    2.2400 C   0  0  0  0  0  0  0  0  0  0  0  0
    5.7701   -1.5396    1.6736 C   0  0  0  0  0  0  0  0  0  0  0  0
    4.5387   -1.4182    0.9984 C   0  0  0  0  0  0  0  0  0  0  0  0
    3.8844   -2.5228    0.4130 C   0  0  0  0  0  0  0  0  0  0  0  0
    2.6750   -2.3765   -0.2012 C   0  0  0  0  0  0  0  0  0  0  0  0
    0.2444    0.3451   -1.0707 N   0  0  0  0  0  0  0  0  0  0  0  0
    0.3166    0.8967   -2.3103 C   0  0  0  0  0  0  0  0  0  0  0  0
   -0.0396    2.3176   -2.4440 C   0  0  0  0  0  0  0  0  0  0  0  0
   -0.2171    3.0255   -3.6035 C   0  0  0  0  0  0  0  0  0  0  0  0
   -0.5347    4.3494   -3.2298 C   0  0  0  0  0  0  0  0  0  0  0  0
   -0.5206    4.3491   -1.8663 C   0  0  0  0  0  0  0  0  0  0  0  0
   -0.8063    5.5895   -0.7422 Cl  0  0  0  0  0  0  0  0  0  0  0  0
   -0.2211    3.1374   -1.3730 O   0  0  0  0  0  0  0  0  0  0  0  0
    0.7011    0.2572   -3.2712 O   0  0  0  0  0  0  0  0  0  0  0  0
   -0.4667    0.8413    0.0913 C   0  0  0  0  0  0  0  0  0  0  0  0
   -1.9462    1.1245   -0.2425 C   0  0  0  0  0  0  0  0  0  0  0  0
   -2.6568    1.2795    0.8703 O   0  0  0  0  0  0  0  0  0  0  0  0
   -2.3984    1.2267   -1.3459 O   0  0  0  0  0  0  0  0  0  0  0  0
   -0.3727   -0.2280    1.0517 N   0  0  0  0  0  0  0  0  0  0  0  0
    0.3043   -0.1893    2.2424 C   0  0  0  0  0  0  0  0  0  0  0  0
    0.5721    1.1542    2.8022 C   0  0  0  0  0  0  0  0  0  0  0  0
   -0.1433    2.3243    2.8538 C   0  0  0  0  0  0  0  0  0  0  0  0
    0.6407    3.2428    3.5866 C   0  0  0  0  0  0  0  0  0  0  0  0
    1.7742    2.5581    3.9249 C   0  0  0  0  0  0  0  0  0  0  0  0
    3.1572    3.0484    4.7741 Cl  0  0  0  0  0  0  0  0  0  0  0  0
    1.7402    1.3026    3.4706 O   0  0  0  0  0  0  0  0  0  0  0  0
    0.6256   -1.2014    2.8252 O   0  0  0  0  0  0  0  0  0  0  0  0
   -2.2418   -2.2509    1.8779 H   0  0  0  0  0  0  0  0  0  0  0  0
   -4.5891   -2.8079    1.3767 H   0  0  0  0  0  0  0  0  0  0  0  0
   -6.4108   -3.0560   -0.2720 H   0  0  0  0  0  0  0  0  0  0  0  0
   -7.1971   -2.9261   -2.6027 H   0  0  0  0  0  0  0  0  0  0  0  0
   -5.6526   -2.2565   -4.3991 H   0  0  0  0  0  0  0  0  0  0  0  0
   -3.3035   -1.7158   -3.8810 H   0  0  0  0  0  0  0  0  0  0  0  0
   -1.5207   -1.4719   -2.2660 H   0  0  0  0  0  0  0  0  0  0  0  0
    0.0945   -2.2504    0.9049 H   0  0  0  0  0  0  0  0  0  0  0  0
    0.5730   -1.6107   -1.7609 H   0  0  0  0  0  0  0  0  0  0  0  0
    2.2459    0.9639    0.1849 H   0  0  0  0  0  0  0  0  0  0  0  0
    4.1027    1.9395    1.4247 H   0  0  0  0  0  0  0  0  0  0  0  0
    6.2441    1.6682    2.6077 H   0  0  0  0  0  0  0  0  0  0  0  0
    7.3064   -0.5476    2.7610 H   0  0  0  0  0  0  0  0  0  0  0  0
    6.2319   -2.5144    1.7400 H   0  0  0  0  0  0  0  0  0  0  0  0
    4.3533   -3.4945    0.4712 H   0  0  0  0  0  0  0  0  0  0  0  0
    2.1721   -3.2298   -0.6329 H   0  0  0  0  0  0  0  0  0  0  0  0
   -0.1309    2.6314   -4.5944 H   0  0  0  0  0  0  0  0  0  0  0  0
   -0.7443    5.1800   -3.8700 H   0  0  0  0  0  0  0  0  0  0  0  0
   -0.0327    1.7663    0.4909 H   0  0  0  0  0  0  0  0  0  0  0  0
   -3.5940    1.4307    0.6624 H   0  0  0  0  0  0  0  0  0  0  0  0
   -1.1222    2.4948    2.4547 H   0  0  0  0  0  0  0  0  0  0  0  0
    0.4043    4.2573    3.8286 H   0  0  0  0  0  0  0  0  0  0  0  0
  1  2  2  0  0  0  0
  2  3  4  0  0  0  0
  3  4  4  0  0  0  0
  4  5  2  0  0  0  0
  5  6  4  0  0  0  0
  6  7  2  0  0  0  0
  3  8  4  0  0  0  0
  7  8  4  0  0  0  0
  8  9  4  0  0  0  0
  1 10  4  0  0  0  0
  9 10  2  0  0  0  0
 10 11  1  0  0  0  0
 11 12  1  0  0  0  0
 12 13  1  0  0  0  0
 13 14  2  0  0  0  0
 14 15  4  0  0  0  0
 15 16  4  0  0  0  0
 16 17  2  0  0  0  0
 17 18  4  0  0  0  0
 18 19  2  0  0  0  0
 15 20  4  0  0  0  0
 19 20  4  0  0  0  0
 20 21  4  0  0  0  0
 13 22  4  0  0  0  0
 21 22  2  0  0  0  0
 12 23  1  0  0  0  0
 23 24  4  0  0  0  0
 24 25  1  0  0  0  0
 25 26  2  0  0  0  0
 26 27  4  0  0  0  0
 27 28  2  0  0  0  0
 28 29  1  0  0  0  0
 25 30  1  0  0  0  0
 28 30  1  0  0  0  0
 24 31  2  0  0  0  0
 23 32  1  0  0  0  0
 32 33  1  0  0  0  0
 33 34  1  0  0  0  0
 33 35  2  0  0  0  0
 11 36  1  0  0  0  0
 32 36  1  0  0  0  0
 36 37  1  0  0  0  0
 37 38  1  0  0  0  0
 38 39  2  0  0  0  0
 39 40  4  0  0  0  0
 40 41  2  0  0  0  0
 41 42  1  0  0  0  0
 38 43  1  0  0  0  0
 41 43  1  0  0  0  0
 37 44  2  0  0  0  0
  1 45  1  0  0  0  0
  2 46  1  0  0  0  0
  4 47  1  0  0  0  0
  5 48  1  0  0  0  0
  6 49  1  0  0  0  0
  7 50  1  0  0  0  0
  9 51  1  0  0  0  0
 11 52  1  0  0  0  0
 12 53  1  0  0  0  0
 14 54  1  0  0  0  0
 16 55  1  0  0  0  0
 17 56  1  0  0  0  0
 18 57  1  0  0  0  0
 19 58  1  0  0  0  0
 21 59  1  0  0  0  0
 22 60  1  0  0  0  0
 26 61  1  0  0  0  0
 27 62  1  0  0  0  0
 32 63  1  0  0  0  0
 34 64  1  0  0  0  0
 39 65  1  0  0  0  0
 40 66  1  0  0  0  0
M  END
