78

C     -0.956738   -2.903283   -2.107638
C     -0.169110   -2.357089   -3.288470
F      0.965733   -1.725660   -2.912722
F      0.219930   -3.331707   -4.169181
F     -0.879534   -1.469978   -4.033207
C     -1.409926   -4.238968   -2.213573
C     -2.096218   -4.871744   -1.180064
C     -2.378351   -4.164604   -0.021752
C     -1.982574   -2.835047    0.097924
C     -1.269028   -2.172796   -0.932131
C     -0.865722   -0.725223   -0.629200
C      0.604075   -0.603274   -0.172725
C      0.891619   -0.732584    1.326281
C      0.264263   -0.003377    2.365074
C     -0.813799    1.040392    2.172914
F     -0.785287    2.032283    3.111044
F     -2.050120    0.471220    2.265186
F     -0.785830    1.680020    0.975931
C      0.619649   -0.282504    3.705877
C      1.605331   -1.215834    4.020532
C      2.263419   -1.889149    3.007171
C      1.910213   -1.653447    1.678650
N      1.098400    0.645208   -0.738398
C      2.474850    0.659665   -0.988033
C      3.321345    1.525742   -0.107935
C      2.786324    2.323956    0.907038
C      3.624923    3.069143    1.734016
C      5.009150    3.028503    1.550514
C      5.558842    2.260549    0.515441
C      7.050610    2.219925    0.300469
C      7.706834    1.143318    1.154219
C      4.710753    1.502179   -0.304150
O      2.997002   -0.090238   -1.811648
C      0.261589    0.994942   -1.901536
C      0.187491    2.576760   -1.944141
O     -0.902878    3.119411   -2.528468
O      1.102057    3.311345   -1.592129
N     -0.982920    0.226140   -1.726112
C     -2.121316    0.491112   -2.446831
C     -3.427370    0.095057   -1.891521
C     -3.994403    0.896085   -0.895488
C     -5.229839    0.545636   -0.336166
C     -5.863997    1.419240    0.712239
C     -5.182974    1.330311    2.065508
C     -5.865273   -0.632900   -0.772525
C     -5.296848   -1.421589   -1.777488
C     -4.080351   -1.051509   -2.353698
O     -2.105092    1.180275   -3.463049
H     -1.198740   -4.814372   -3.115337
H     -2.404090   -5.906862   -1.287316
H     -2.898369   -4.656342    0.797193
H     -2.238220   -2.312568    1.019629
H     -1.548141   -0.356431    0.139120
H      1.158639   -1.408030   -0.671747
H      0.130842    0.249977    4.519184
H      1.866088   -1.404775    5.060230
H      3.048173   -2.605864    3.246061
H      2.451503   -2.205013    0.908955
H      1.713436    2.397598    1.057077
H      3.202272    3.692476    2.518632
H      5.655625    3.605041    2.213982
H      7.263150    2.035223   -0.762469
H      7.485632    3.199216    0.530875
H      7.561096    1.340746    2.222802
H      8.786189    1.118437    0.960602
H      7.298559    0.147407    0.934602
H      5.139985    0.898178   -1.100646
H      0.730129    0.669888   -2.836586
H     -1.392657    2.475417   -3.090659
H     -3.480620    1.800499   -0.566233
H     -5.842422    2.456143    0.365016
H     -6.923104    1.161495    0.827160
H     -4.136466    1.653552    2.005522
H     -5.210525    0.309722    2.467127
H     -5.702148    1.982717    2.783438
H     -6.819295   -0.932025   -0.338623
H     -5.802630   -2.331935   -2.105335
H     -3.632791   -1.675431   -3.128303
