
  xtb     03172201063D
 xtb: 6.3.3 (4ae9cef)
 78 82  0     0  0            999 V2000
   -0.7297   -2.3252   -1.8795 C   0  0  0  0  0  0  0  0  0  0  0  0
    0.0148   -1.8266   -3.0948 C   0  0  0  0  0  0  0  0  0  0  0  0
    1.1266   -1.1344   -2.7949 F   0  0  0  0  0  0  0  0  0  0  0  0
    0.4290   -2.8321   -3.8804 F   0  0  0  0  0  0  0  0  0  0  0  0
   -0.7269   -1.0346   -3.8853 F   0  0  0  0  0  0  0  0  0  0  0  0
   -1.0998   -3.6677   -1.8984 C   0  0  0  0  0  0  0  0  0  0  0  0
   -1.7812   -4.2354   -0.8402 C   0  0  0  0  0  0  0  0  0  0  0  0
   -2.0865   -3.4603    0.2632 C   0  0  0  0  0  0  0  0  0  0  0  0
   -1.7337   -2.1259    0.2794 C   0  0  0  0  0  0  0  0  0  0  0  0
   -1.0730   -1.5192   -0.7871 C   0  0  0  0  0  0  0  0  0  0  0  0
   -0.7984   -0.0356   -0.6306 C   0  0  0  0  0  0  0  0  0  0  0  0
    0.6880    0.2737   -0.3233 C   0  0  0  0  0  0  0  0  0  0  0  0
    1.0063    0.5837    1.1279 C   0  0  0  0  0  0  0  0  0  0  0  0
    0.4144    1.5547    1.9406 C   0  0  0  0  0  0  0  0  0  0  0  0
   -0.8049    2.3731    1.6039 C   0  0  0  0  0  0  0  0  0  0  0  0
   -0.7921    3.5746    2.1853 F   0  0  0  0  0  0  0  0  0  0  0  0
   -1.9152    1.7427    2.0927 F   0  0  0  0  0  0  0  0  0  0  0  0
   -1.0718    2.5758    0.3175 F   0  0  0  0  0  0  0  0  0  0  0  0
    0.8746    1.7571    3.2417 C   0  0  0  0  0  0  0  0  0  0  0  0
    1.9123    1.0099    3.7585 C   0  0  0  0  0  0  0  0  0  0  0  0
    2.4808    0.0185    2.9797 C   0  0  0  0  0  0  0  0  0  0  0  0
    2.0259   -0.1827    1.6930 C   0  0  0  0  0  0  0  0  0  0  0  0
    1.0381    1.3175   -1.2672 N   0  0  0  0  0  0  0  0  0  0  0  0
    2.3075    1.7394   -1.5760 C   0  0  0  0  0  0  0  0  0  0  0  0
    3.2731    1.6894   -0.4407 C   0  0  0  0  0  0  0  0  0  0  0  0
    3.1582    2.6685    0.5397 C   0  0  0  0  0  0  0  0  0  0  0  0
    4.0696    2.7004    1.5786 C   0  0  0  0  0  0  0  0  0  0  0  0
    5.0896    1.7671    1.6370 C   0  0  0  0  0  0  0  0  0  0  0  0
    5.2261    0.7974    0.6512 C   0  0  0  0  0  0  0  0  0  0  0  0
    6.3329   -0.2157    0.7322 C   0  0  0  0  0  0  0  0  0  0  0  0
    5.9879   -1.3262    1.7262 C   0  0  0  0  0  0  0  0  0  0  0  0
    4.3083    0.7685   -0.3904 C   0  0  0  0  0  0  0  0  0  0  0  0
    2.5762    2.1850   -2.6666 O   0  0  0  0  0  0  0  0  0  0  0  0
   -0.0055    1.6043   -2.2170 C   0  0  0  0  0  0  0  0  0  0  0  0
   -0.2390    3.1587   -2.2130 C   0  0  0  0  0  0  0  0  0  0  0  0
   -1.1442    3.5955   -3.0528 O   0  0  0  0  0  0  0  0  0  0  0  0
    0.4272    3.8659   -1.5152 O   0  0  0  0  0  0  0  0  0  0  0  0
   -1.1196    0.7749   -1.7935 N   0  0  0  0  0  0  0  0  0  0  0  0
   -2.3047    0.7481   -2.4406 C   0  0  0  0  0  0  0  0  0  0  0  0
   -3.3387   -0.1596   -1.8652 C   0  0  0  0  0  0  0  0  0  0  0  0
   -3.9624    0.1790   -0.6717 C   0  0  0  0  0  0  0  0  0  0  0  0
   -4.9525   -0.6336   -0.1358 C   0  0  0  0  0  0  0  0  0  0  0  0
   -5.6098   -0.2690    1.1642 C   0  0  0  0  0  0  0  0  0  0  0  0
   -4.7339   -0.6674    2.3537 C   0  0  0  0  0  0  0  0  0  0  0  0
   -5.2967   -1.7987   -0.8096 C   0  0  0  0  0  0  0  0  0  0  0  0
   -4.6988   -2.1239   -2.0143 C   0  0  0  0  0  0  0  0  0  0  0  0
   -3.7302   -1.2992   -2.5559 C   0  0  0  0  0  0  0  0  0  0  0  0
   -2.5200    1.4317   -3.4323 O   0  0  0  0  0  0  0  0  0  0  0  0
   -0.8486   -4.2741   -2.7543 H   0  0  0  0  0  0  0  0  0  0  0  0
   -2.0647   -5.2750   -0.8803 H   0  0  0  0  0  0  0  0  0  0  0  0
   -2.6064   -3.8883    1.1059 H   0  0  0  0  0  0  0  0  0  0  0  0
   -1.9901   -1.5259    1.1390 H   0  0  0  0  0  0  0  0  0  0  0  0
   -1.4229    0.2841    0.2092 H   0  0  0  0  0  0  0  0  0  0  0  0
    1.2839   -0.6200   -0.5603 H   0  0  0  0  0  0  0  0  0  0  0  0
    0.4065    2.5151    3.8506 H   0  0  0  0  0  0  0  0  0  0  0  0
    2.2615    1.1933    4.7620 H   0  0  0  0  0  0  0  0  0  0  0  0
    3.2772   -0.5958    3.3686 H   0  0  0  0  0  0  0  0  0  0  0  0
    2.4853   -0.9537    1.0934 H   0  0  0  0  0  0  0  0  0  0  0  0
    2.3715    3.4035    0.4622 H   0  0  0  0  0  0  0  0  0  0  0  0
    3.9897    3.4614    2.3406 H   0  0  0  0  0  0  0  0  0  0  0  0
    5.8036    1.8028    2.4477 H   0  0  0  0  0  0  0  0  0  0  0  0
    6.5059   -0.6531   -0.2522 H   0  0  0  0  0  0  0  0  0  0  0  0
    7.2542    0.2747    1.0531 H   0  0  0  0  0  0  0  0  0  0  0  0
    5.8323   -0.9106    2.7194 H   0  0  0  0  0  0  0  0  0  0  0  0
    6.7955   -2.0526    1.7789 H   0  0  0  0  0  0  0  0  0  0  0  0
    5.0797   -1.8416    1.4208 H   0  0  0  0  0  0  0  0  0  0  0  0
    4.4020    0.0312   -1.1752 H   0  0  0  0  0  0  0  0  0  0  0  0
    0.3072    1.3468   -3.2457 H   0  0  0  0  0  0  0  0  0  0  0  0
   -1.6815    2.8552   -3.4552 H   0  0  0  0  0  0  0  0  0  0  0  0
   -3.6936    1.0954   -0.1658 H   0  0  0  0  0  0  0  0  0  0  0  0
   -5.7848    0.8076    1.1973 H   0  0  0  0  0  0  0  0  0  0  0  0
   -6.5738   -0.7748    1.2412 H   0  0  0  0  0  0  0  0  0  0  0  0
   -3.7991   -0.1125    2.3415 H   0  0  0  0  0  0  0  0  0  0  0  0
   -4.5120   -1.7323    2.3214 H   0  0  0  0  0  0  0  0  0  0  0  0
   -5.2466   -0.4489    3.2871 H   0  0  0  0  0  0  0  0  0  0  0  0
   -6.0576   -2.4456   -0.3972 H   0  0  0  0  0  0  0  0  0  0  0  0
   -4.9968   -3.0182   -2.5407 H   0  0  0  0  0  0  0  0  0  0  0  0
   -3.2757   -1.5302   -3.5067 H   0  0  0  0  0  0  0  0  0  0  0  0
  1  2  1  0  0  0  0
  2  3  1  0  0  0  0
  2  4  1  0  0  0  0
  2  5  1  0  0  0  0
  1  6  4  0  0  0  0
  6  7  4  0  0  0  0
  7  8  4  0  0  0  0
  8  9  4  0  0  0  0
  1 10  4  0  0  0  0
  9 10  4  0  0  0  0
 10 11  1  0  0  0  0
 11 12  1  0  0  0  0
 12 13  1  0  0  0  0
 13 14  4  0  0  0  0
 14 15  1  0  0  0  0
 15 16  1  0  0  0  0
 15 17  1  0  0  0  0
 15 18  1  0  0  0  0
 14 19  4  0  0  0  0
 19 20  4  0  0  0  0
 20 21  4  0  0  0  0
 13 22  4  0  0  0  0
 21 22  4  0  0  0  0
 12 23  1  0  0  0  0
 23 24  1  0  0  0  0
 24 25  1  0  0  0  0
 25 26  4  0  0  0  0
 26 27  4  0  0  0  0
 27 28  4  0  0  0  0
 28 29  4  0  0  0  0
 29 30  1  0  0  0  0
 30 31  1  0  0  0  0
 25 32  4  0  0  0  0
 29 32  4  0  0  0  0
 24 33  2  0  0  0  0
 23 34  1  0  0  0  0
 34 35  1  0  0  0  0
 35 36  4  0  0  0  0
 35 37  2  0  0  0  0
 11 38  1  0  0  0  0
 34 38  1  0  0  0  0
 38 39  4  0  0  0  0
 39 40  1  0  0  0  0
 40 41  4  0  0  0  0
 41 42  4  0  0  0  0
 42 43  1  0  0  0  0
 43 44  1  0  0  0  0
 42 45  4  0  0  0  0
 45 46  4  0  0  0  0
 40 47  4  0  0  0  0
 46 47  4  0  0  0  0
 39 48  2  0  0  0  0
  6 49  1  0  0  0  0
  7 50  1  0  0  0  0
  8 51  1  0  0  0  0
  9 52  1  0  0  0  0
 11 53  1  0  0  0  0
 12 54  1  0  0  0  0
 19 55  1  0  0  0  0
 20 56  1  0  0  0  0
 21 57  1  0  0  0  0
 22 58  1  0  0  0  0
 26 59  1  0  0  0  0
 27 60  1  0  0  0  0
 28 61  1  0  0  0  0
 30 62  1  0  0  0  0
 30 63  1  0  0  0  0
 31 64  1  0  0  0  0
 31 65  1  0  0  0  0
 31 66  1  0  0  0  0
 32 67  1  0  0  0  0
 34 68  1  0  0  0  0
 36 69  1  0  0  0  0
 41 70  1  0  0  0  0
 43 71  1  0  0  0  0
 43 72  1  0  0  0  0
 44 73  1  0  0  0  0
 44 74  1  0  0  0  0
 44 75  1  0  0  0  0
 45 76  1  0  0  0  0
 46 77  1  0  0  0  0
 47 78  1  0  0  0  0
M  END
