68

C      0.887658   -2.367354    1.708405
C      0.561327   -1.421831    2.850850
F      0.113674   -2.067184    3.964946
F     -0.400879   -0.506993    2.563211
F      1.651042   -0.710558    3.253197
C      1.229458   -3.691830    2.063002
C      1.576860   -4.639583    1.101123
C      1.611662   -4.281442   -0.236093
C      1.290148   -2.977881   -0.611801
C      0.929122   -1.998478    0.342038
C      0.581825   -0.626516   -0.222746
C     -0.952626   -0.369581   -0.233578
C     -1.615717   -0.765700   -1.553031
C     -2.532070   -1.843624   -1.649054
C     -2.963069   -2.683392   -0.459648
F     -3.825120   -2.038460    0.368470
F     -1.915350   -3.079491    0.315373
F     -3.591920   -3.841236   -0.818521
C     -3.108207   -2.143124   -2.902895
C     -2.775496   -1.415669   -4.044904
C     -1.875382   -0.363829   -3.953020
C     -1.302568   -0.041071   -2.722034
N     -1.083640    1.057291    0.047816
C     -2.312322    1.557228    0.452465
C     -2.414954    3.000159    0.605165
C     -2.466070    3.866916   -0.471325
S     -2.639999    5.498303    0.013139
C     -2.681333    5.061609    1.668966
C     -2.582541    3.698747    1.837709
O     -2.555731    3.086215    3.045061
C     -3.696450    3.394267    3.842358
O     -3.283385    0.838079    0.654230
C      0.182437    1.624321    0.518631
C      0.628548    2.746099   -0.455352
O      0.770651    3.947253    0.143200
O      0.844122    2.631197   -1.656773
N      1.143616    0.529568    0.470474
C      2.458028    0.801142    0.808009
C      3.476216   -0.186397    0.487362
C      4.228961   -0.812349    1.465241
S      5.326382   -1.951936    0.822803
C      4.872769   -1.568096   -0.780592
C      3.915713   -0.579478   -0.815057
O      3.385541   -0.094251   -1.963685
C      4.350255    0.535038   -2.806157
O      2.764120    1.848834    1.375549
H      1.221260   -3.995988    3.111169
H      1.827537   -5.653605    1.403377
H      1.888307   -5.013571   -0.991157
H      1.340776   -2.722040   -1.668515
H      0.973177   -0.547336   -1.242140
H     -1.443981   -0.883614    0.596377
H     -3.828031   -2.956691   -2.994324
H     -3.230051   -1.663907   -5.001701
H     -1.619615    0.214756   -4.838000
H     -0.610843    0.797663   -2.688701
H     -2.412658    3.615004   -1.522721
H     -2.779916    5.824721    2.430302
H     -4.625429    3.348971    3.259088
H     -3.584742    4.381116    4.302870
H     -3.760186    2.650026    4.642756
H      0.094228    1.999767    1.544861
H      1.094273    4.545967   -0.560157
H      4.160803   -0.662440    2.534024
H      5.339043   -2.070774   -1.618358
H      5.387144    0.379728   -2.491060
H      4.216182    0.144864   -3.821180
H      4.147413    1.612449   -2.819337
