
  xtb     03172200093D
 xtb: 6.3.3 (4ae9cef)
 68 72  0     0  0            999 V2000
    0.8738   -2.1669    1.8968 C   0  0  0  0  0  0  0  0  0  0  0  0
    0.3908   -1.2046    2.9513 C   0  0  0  0  0  0  0  0  0  0  0  0
    0.1265   -1.8210    4.1151 F   0  0  0  0  0  0  0  0  0  0  0  0
   -0.7332   -0.5513    2.6327 F   0  0  0  0  0  0  0  0  0  0  0  0
    1.3055   -0.2589    3.2542 F   0  0  0  0  0  0  0  0  0  0  0  0
    1.3526   -3.3923    2.3528 C   0  0  0  0  0  0  0  0  0  0  0  0
    1.8188   -4.3450    1.4691 C   0  0  0  0  0  0  0  0  0  0  0  0
    1.7997   -4.0807    0.1117 C   0  0  0  0  0  0  0  0  0  0  0  0
    1.3432   -2.8592   -0.3407 C   0  0  0  0  0  0  0  0  0  0  0  0
    0.8873   -1.8730    0.5303 C   0  0  0  0  0  0  0  0  0  0  0  0
    0.4561   -0.5709   -0.1009 C   0  0  0  0  0  0  0  0  0  0  0  0
   -1.0739   -0.4050   -0.2427 C   0  0  0  0  0  0  0  0  0  0  0  0
   -1.5102   -0.6663   -1.6649 C   0  0  0  0  0  0  0  0  0  0  0  0
   -2.2693   -1.7754   -2.0380 C   0  0  0  0  0  0  0  0  0  0  0  0
   -2.6977   -2.7998   -1.0241 C   0  0  0  0  0  0  0  0  0  0  0  0
   -3.4997   -2.3233   -0.0636 F   0  0  0  0  0  0  0  0  0  0  0  0
   -1.6372   -3.3492   -0.3772 F   0  0  0  0  0  0  0  0  0  0  0  0
   -3.3480   -3.8360   -1.5719 F   0  0  0  0  0  0  0  0  0  0  0  0
   -2.6394   -1.9593   -3.3658 C   0  0  0  0  0  0  0  0  0  0  0  0
   -2.2511   -1.0481   -4.3289 C   0  0  0  0  0  0  0  0  0  0  0  0
   -1.4816    0.0459   -3.9699 C   0  0  0  0  0  0  0  0  0  0  0  0
   -1.1104    0.2300   -2.6522 C   0  0  0  0  0  0  0  0  0  0  0  0
   -1.3095    0.9841    0.1267 N   0  0  0  0  0  0  0  0  0  0  0  0
   -2.4980    1.5768   -0.1534 C   0  0  0  0  0  0  0  0  0  0  0  0
   -2.6149    2.9951    0.2776 C   0  0  0  0  0  0  0  0  0  0  0  0
   -2.8782    4.0073   -0.5920 C   0  0  0  0  0  0  0  0  0  0  0  0
   -3.0159    5.5230    0.1920 S   0  0  0  0  0  0  0  0  0  0  0  0
   -2.7572    4.7972    1.7332 C   0  0  0  0  0  0  0  0  0  0  0  0
   -2.5563    3.4536    1.6338 C   0  0  0  0  0  0  0  0  0  0  0  0
   -2.3305    2.5689    2.6321 O   0  0  0  0  0  0  0  0  0  0  0  0
   -2.2793    3.0833    3.9430 C   0  0  0  0  0  0  0  0  0  0  0  0
   -3.3834    0.9959   -0.7447 O   0  0  0  0  0  0  0  0  0  0  0  0
   -0.1662    1.6058    0.7408 C   0  0  0  0  0  0  0  0  0  0  0  0
    0.2532    2.8874   -0.0096 C   0  0  0  0  0  0  0  0  0  0  0  0
    0.2579    3.9540    0.7710 O   0  0  0  0  0  0  0  0  0  0  0  0
    0.5046    2.8996   -1.1841 O   0  0  0  0  0  0  0  0  0  0  0  0
    0.8853    0.6167    0.6108 N   0  0  0  0  0  0  0  0  0  0  0  0
    2.1722    1.0095    0.7856 C   0  0  0  0  0  0  0  0  0  0  0  0
    3.1971   -0.0517    0.5759 C   0  0  0  0  0  0  0  0  0  0  0  0
    3.9320   -0.5874    1.5855 C   0  0  0  0  0  0  0  0  0  0  0  0
    5.0615   -1.7477    1.0287 S   0  0  0  0  0  0  0  0  0  0  0  0
    4.5796   -1.4945   -0.6042 C   0  0  0  0  0  0  0  0  0  0  0  0
    3.5836   -0.5703   -0.7010 C   0  0  0  0  0  0  0  0  0  0  0  0
    2.9649   -0.1298   -1.8262 O   0  0  0  0  0  0  0  0  0  0  0  0
    3.4994   -0.5559   -3.0579 C   0  0  0  0  0  0  0  0  0  0  0  0
    2.4426    2.1385    1.1380 O   0  0  0  0  0  0  0  0  0  0  0  0
    1.3520   -3.6003    3.4113 H   0  0  0  0  0  0  0  0  0  0  0  0
    2.1879   -5.2873    1.8411 H   0  0  0  0  0  0  0  0  0  0  0  0
    2.1460   -4.8208   -0.5928 H   0  0  0  0  0  0  0  0  0  0  0  0
    1.3345   -2.6540   -1.4008 H   0  0  0  0  0  0  0  0  0  0  0  0
    0.8917   -0.5398   -1.1088 H   0  0  0  0  0  0  0  0  0  0  0  0
   -1.6121   -1.0479    0.4595 H   0  0  0  0  0  0  0  0  0  0  0  0
   -3.2368   -2.8151   -3.6391 H   0  0  0  0  0  0  0  0  0  0  0  0
   -2.5519   -1.1926   -5.3549 H   0  0  0  0  0  0  0  0  0  0  0  0
   -1.1735    0.7617   -4.7168 H   0  0  0  0  0  0  0  0  0  0  0  0
   -0.5192    1.0916   -2.3759 H   0  0  0  0  0  0  0  0  0  0  0  0
   -2.9794    3.9369   -1.6562 H   0  0  0  0  0  0  0  0  0  0  0  0
   -2.7688    5.4160    2.6062 H   0  0  0  0  0  0  0  0  0  0  0  0
   -3.2269    3.5543    4.2209 H   0  0  0  0  0  0  0  0  0  0  0  0
   -1.4672    3.8095    4.0485 H   0  0  0  0  0  0  0  0  0  0  0  0
   -2.0938    2.2276    4.5892 H   0  0  0  0  0  0  0  0  0  0  0  0
   -0.3346    1.8516    1.7993 H   0  0  0  0  0  0  0  0  0  0  0  0
    0.6038    4.7300    0.3002 H   0  0  0  0  0  0  0  0  0  0  0  0
    3.8572   -0.3651    2.6303 H   0  0  0  0  0  0  0  0  0  0  0  0
    5.0699   -2.0414   -1.3826 H   0  0  0  0  0  0  0  0  0  0  0  0
    4.5529   -0.2770   -3.1486 H   0  0  0  0  0  0  0  0  0  0  0  0
    3.4021   -1.6399   -3.1799 H   0  0  0  0  0  0  0  0  0  0  0  0
    2.9188   -0.0472   -3.8251 H   0  0  0  0  0  0  0  0  0  0  0  0
  1  2  1  0  0  0  0
  2  3  1  0  0  0  0
  2  4  1  0  0  0  0
  2  5  1  0  0  0  0
  1  6  4  0  0  0  0
  6  7  4  0  0  0  0
  7  8  4  0  0  0  0
  8  9  4  0  0  0  0
  1 10  4  0  0  0  0
  9 10  4  0  0  0  0
 10 11  1  0  0  0  0
 11 12  1  0  0  0  0
 12 13  1  0  0  0  0
 13 14  4  0  0  0  0
 14 15  1  0  0  0  0
 15 16  1  0  0  0  0
 15 17  1  0  0  0  0
 15 18  1  0  0  0  0
 14 19  4  0  0  0  0
 19 20  4  0  0  0  0
 20 21  4  0  0  0  0
 13 22  4  0  0  0  0
 21 22  4  0  0  0  0
 12 23  1  0  0  0  0
 23 24  4  0  0  0  0
 24 25  1  0  0  0  0
 25 26  2  0  0  0  0
 26 27  1  0  0  0  0
 27 28  1  0  0  0  0
 25 29  1  0  0  0  0
 28 29  2  0  0  0  0
 29 30  1  0  0  0  0
 30 31  1  0  0  0  0
 24 32  2  0  0  0  0
 23 33  1  0  0  0  0
 33 34  1  0  0  0  0
 34 35  1  0  0  0  0
 34 36  2  0  0  0  0
 11 37  1  0  0  0  0
 33 37  1  0  0  0  0
 37 38  4  0  0  0  0
 38 39  1  0  0  0  0
 39 40  2  0  0  0  0
 40 41  1  0  0  0  0
 41 42  1  0  0  0  0
 39 43  1  0  0  0  0
 42 43  2  0  0  0  0
 43 44  1  0  0  0  0
 44 45  1  0  0  0  0
 38 46  2  0  0  0  0
  6 47  1  0  0  0  0
  7 48  1  0  0  0  0
  8 49  1  0  0  0  0
  9 50  1  0  0  0  0
 11 51  1  0  0  0  0
 12 52  1  0  0  0  0
 19 53  1  0  0  0  0
 20 54  1  0  0  0  0
 21 55  1  0  0  0  0
 22 56  1  0  0  0  0
 26 57  1  0  0  0  0
 28 58  1  0  0  0  0
 31 59  1  0  0  0  0
 31 60  1  0  0  0  0
 31 61  1  0  0  0  0
 33 62  1  0  0  0  0
 35 63  1  0  0  0  0
 40 64  1  0  0  0  0
 42 65  1  0  0  0  0
 45 66  1  0  0  0  0
 45 67  1  0  0  0  0
 45 68  1  0  0  0  0
M  END
