80

C     -2.050319   -1.582734    3.915193
C     -2.893932   -2.081758    4.908527
C     -3.123671   -1.343333    6.063815
C     -2.508164   -0.107028    6.231349
C     -1.664820    0.396149    5.237987
C     -1.429628   -0.332690    4.063570
C     -0.493115    0.227343    3.005969
C      0.809139   -0.613581    2.906251
C      1.939923   -0.103833    3.780708
C      2.541636    1.147626    3.573709
C      3.578211    1.588369    4.399783
C      4.029612    0.784366    5.443226
C      3.444407   -0.459980    5.663010
C      2.408107   -0.901608    4.837184
N      1.139471   -0.621188    1.479883
C      2.001129   -1.579170    0.974082
C      2.374314   -1.421949   -0.418226
C      2.276287   -2.390644   -1.398387
C      1.822980   -3.796927   -1.406957
O      2.683536   -1.888683   -2.598420
C      3.099628   -0.602758   -2.392621
C      3.578184    0.131612   -3.560274
C      3.802356   -0.510529   -4.786983
C      4.261945    0.202145   -5.898447
C      4.500741    1.570701   -5.799918
C      4.281060    2.226310   -4.591074
C      3.824074    1.511925   -3.479823
C      2.953507   -0.289614   -1.057606
O      2.421081   -2.518622    1.640162
C      0.049805   -0.051087    0.693491
C      0.497987    1.314271    0.083645
O      0.293866    1.427762   -1.252405
O      0.970961    2.240635    0.729579
N     -1.032985    0.162468    1.645569
C     -2.198188    0.822217    1.291710
C     -2.685440    0.579605   -0.056839
C     -2.946290   -0.646839   -0.641571
C     -2.898056   -2.047203   -0.172030
O     -3.354847   -0.475309   -1.927751
C     -3.440908    0.867585   -2.166892
C     -3.899126    1.260458   -3.496586
C     -4.285255    0.299169   -4.444302
C     -4.727177    0.677786   -5.714519
C     -4.789158    2.025362   -6.057467
C     -4.410062    2.992897   -5.130730
C     -3.967384    2.614084   -3.859280
C     -3.056612    1.551298   -1.031106
O     -2.784484    1.594839    2.040143
H     -1.877983   -2.184939    3.028007
H     -3.370791   -3.046606    4.776152
H     -3.782507   -1.728566    6.838082
H     -2.688357    0.472441    7.132626
H     -1.196202    1.364891    5.392238
H     -0.284049    1.287963    3.205923
H      0.603348   -1.661292    3.167217
H      2.214010    1.798227    2.766984
H      4.034861    2.559878    4.225951
H      4.841776    1.123914    6.080868
H      3.798206   -1.091108    6.474068
H      1.975269   -1.884080    5.021363
H      2.682722   -4.472227   -1.421119
H      1.221639   -4.026815   -0.523840
H      1.210240   -3.997859   -2.290810
H      3.627026   -1.579017   -4.888760
H      4.434241   -0.312391   -6.840819
H      4.859146    2.126470   -6.662905
H      4.463762    3.295912   -4.510569
H      3.658095    2.054295   -2.550995
H      3.227526    0.649566   -0.594467
H     -0.253356   -0.745077   -0.092172
H     -0.102752    0.658476   -1.710244
H     -3.729128   -2.626083   -0.588472
H     -1.961606   -2.521558   -0.477494
H     -2.973480   -2.099313    0.915015
H     -4.249774   -0.760100   -4.200176
H     -5.026036   -0.081116   -6.432059
H     -5.133401    2.321066   -7.045029
H     -4.459725    4.046431   -5.396058
H     -3.680883    3.394478   -3.158267
H     -3.026159    2.625696   -0.908574
