
  xtb     03172200553D
 xtb: 6.3.3 (4ae9cef)
 80 86  0     0  0            999 V2000
   -0.8148   -2.4692    2.4784 C   0  0  0  0  0  0  0  0  0  0  0  0
   -1.1552   -3.7942    2.6772 C   0  0  0  0  0  0  0  0  0  0  0  0
   -1.5951   -4.2217    3.9176 C   0  0  0  0  0  0  0  0  0  0  0  0
   -1.6958   -3.3163    4.9593 C   0  0  0  0  0  0  0  0  0  0  0  0
   -1.3567   -1.9903    4.7610 C   0  0  0  0  0  0  0  0  0  0  0  0
   -0.9143   -1.5555    3.5200 C   0  0  0  0  0  0  0  0  0  0  0  0
   -0.4987   -0.1160    3.3336 C   0  0  0  0  0  0  0  0  0  0  0  0
    1.0515   -0.0005    3.3089 C   0  0  0  0  0  0  0  0  0  0  0  0
    1.5960    1.2387    3.9828 C   0  0  0  0  0  0  0  0  0  0  0  0
    2.5955    1.9907    3.3789 C   0  0  0  0  0  0  0  0  0  0  0  0
    3.0925    3.1231    3.9997 C   0  0  0  0  0  0  0  0  0  0  0  0
    2.6083    3.5093    5.2368 C   0  0  0  0  0  0  0  0  0  0  0  0
    1.6381    2.7442    5.8611 C   0  0  0  0  0  0  0  0  0  0  0  0
    1.1379    1.6140    5.2404 C   0  0  0  0  0  0  0  0  0  0  0  0
    1.3478   -0.0354    1.8855 N   0  0  0  0  0  0  0  0  0  0  0  0
    2.0372   -1.1010    1.3531 C   0  0  0  0  0  0  0  0  0  0  0  0
    1.9451   -1.2397   -0.1094 C   0  0  0  0  0  0  0  0  0  0  0  0
    1.7517   -2.4323   -0.7682 C   0  0  0  0  0  0  0  0  0  0  0  0
    1.6673   -3.8209   -0.2542 C   0  0  0  0  0  0  0  0  0  0  0  0
    1.5937   -2.2085   -2.0827 O   0  0  0  0  0  0  0  0  0  0  0  0
    1.7113   -0.8712   -2.3041 C   0  0  0  0  0  0  0  0  0  0  0  0
    1.5535   -0.3576   -3.6501 C   0  0  0  0  0  0  0  0  0  0  0  0
    1.2063   -1.2154   -4.6942 C   0  0  0  0  0  0  0  0  0  0  0  0
    1.0550   -0.7279   -5.9772 C   0  0  0  0  0  0  0  0  0  0  0  0
    1.2531    0.6172   -6.2392 C   0  0  0  0  0  0  0  0  0  0  0  0
    1.5952    1.4759   -5.2072 C   0  0  0  0  0  0  0  0  0  0  0  0
    1.7390    0.9990   -3.9200 C   0  0  0  0  0  0  0  0  0  0  0  0
    1.9338   -0.2303   -1.1146 C   0  0  0  0  0  0  0  0  0  0  0  0
    2.6499   -1.8683    2.0668 O   0  0  0  0  0  0  0  0  0  0  0  0
    0.2855    0.6665    1.2170 C   0  0  0  0  0  0  0  0  0  0  0  0
    0.5863    2.1891    1.1324 C   0  0  0  0  0  0  0  0  0  0  0  0
   -0.1986    2.9591    1.8748 O   0  0  0  0  0  0  0  0  0  0  0  0
    1.4392    2.6249    0.4154 O   0  0  0  0  0  0  0  0  0  0  0  0
   -0.8934    0.4096    2.0212 N   0  0  0  0  0  0  0  0  0  0  0  0
   -2.1301    0.0970    1.5012 C   0  0  0  0  0  0  0  0  0  0  0  0
   -2.2483    0.2179    0.0351 C   0  0  0  0  0  0  0  0  0  0  0  0
   -2.7868   -0.7623   -0.7659 C   0  0  0  0  0  0  0  0  0  0  0  0
   -3.3844   -2.0746   -0.4196 C   0  0  0  0  0  0  0  0  0  0  0  0
   -2.6763   -0.4112   -2.0564 O   0  0  0  0  0  0  0  0  0  0  0  0
   -2.0924    0.8128   -2.1178 C   0  0  0  0  0  0  0  0  0  0  0  0
   -1.8681    1.4260   -3.4120 C   0  0  0  0  0  0  0  0  0  0  0  0
   -2.1872    0.7327   -4.5799 C   0  0  0  0  0  0  0  0  0  0  0  0
   -1.9999    1.3211   -5.8146 C   0  0  0  0  0  0  0  0  0  0  0  0
   -1.4944    2.6071   -5.9042 C   0  0  0  0  0  0  0  0  0  0  0  0
   -1.1639    3.2981   -4.7498 C   0  0  0  0  0  0  0  0  0  0  0  0
   -1.3438    2.7152   -3.5113 C   0  0  0  0  0  0  0  0  0  0  0  0
   -1.8071    1.2428   -0.8486 C   0  0  0  0  0  0  0  0  0  0  0  0
   -3.0348   -0.2717    2.2198 O   0  0  0  0  0  0  0  0  0  0  0  0
   -0.4806   -2.1504    1.5006 H   0  0  0  0  0  0  0  0  0  0  0  0
   -1.0769   -4.4953    1.8594 H   0  0  0  0  0  0  0  0  0  0  0  0
   -1.8626   -5.2565    4.0700 H   0  0  0  0  0  0  0  0  0  0  0  0
   -2.0438   -3.6415    5.9283 H   0  0  0  0  0  0  0  0  0  0  0  0
   -1.4432   -1.2855    5.5752 H   0  0  0  0  0  0  0  0  0  0  0  0
   -0.9447    0.4966    4.1225 H   0  0  0  0  0  0  0  0  0  0  0  0
    1.5118   -0.8864    3.7641 H   0  0  0  0  0  0  0  0  0  0  0  0
    2.9935    1.6875    2.4230 H   0  0  0  0  0  0  0  0  0  0  0  0
    3.8619    3.7018    3.5120 H   0  0  0  0  0  0  0  0  0  0  0  0
    2.9933    4.3950    5.7193 H   0  0  0  0  0  0  0  0  0  0  0  0
    1.2704    3.0251    6.8368 H   0  0  0  0  0  0  0  0  0  0  0  0
    0.3981    1.0131    5.7493 H   0  0  0  0  0  0  0  0  0  0  0  0
    2.4249   -4.4403   -0.7316 H   0  0  0  0  0  0  0  0  0  0  0  0
    1.8373   -3.8171    0.8184 H   0  0  0  0  0  0  0  0  0  0  0  0
    0.6923   -4.2552   -0.4746 H   0  0  0  0  0  0  0  0  0  0  0  0
    1.0592   -2.2647   -4.4877 H   0  0  0  0  0  0  0  0  0  0  0  0
    0.7855   -1.4008   -6.7779 H   0  0  0  0  0  0  0  0  0  0  0  0
    1.1422    0.9958   -7.2441 H   0  0  0  0  0  0  0  0  0  0  0  0
    1.7504    2.5251   -5.4083 H   0  0  0  0  0  0  0  0  0  0  0  0
    2.0017    1.6736   -3.1210 H   0  0  0  0  0  0  0  0  0  0  0  0
    2.1002    0.8162   -0.9609 H   0  0  0  0  0  0  0  0  0  0  0  0
    0.1672    0.3073    0.1889 H   0  0  0  0  0  0  0  0  0  0  0  0
   -0.8451    2.4219    2.3696 H   0  0  0  0  0  0  0  0  0  0  0  0
   -4.3608   -2.1741   -0.8903 H   0  0  0  0  0  0  0  0  0  0  0  0
   -2.7548   -2.8895   -0.7777 H   0  0  0  0  0  0  0  0  0  0  0  0
   -3.4962   -2.1474    0.6582 H   0  0  0  0  0  0  0  0  0  0  0  0
   -2.5861   -0.2674   -4.5069 H   0  0  0  0  0  0  0  0  0  0  0  0
   -2.2529    0.7757   -6.7117 H   0  0  0  0  0  0  0  0  0  0  0  0
   -1.3559    3.0691   -6.8703 H   0  0  0  0  0  0  0  0  0  0  0  0
   -0.7647    4.2995   -4.8157 H   0  0  0  0  0  0  0  0  0  0  0  0
   -1.0834    3.2598   -2.6177 H   0  0  0  0  0  0  0  0  0  0  0  0
   -1.3690    2.1807   -0.5760 H   0  0  0  0  0  0  0  0  0  0  0  0
  1  2  4  0  0  0  0
  2  3  4  0  0  0  0
  3  4  4  0  0  0  0
  4  5  4  0  0  0  0
  1  6  4  0  0  0  0
  5  6  4  0  0  0  0
  6  7  1  0  0  0  0
  7  8  1  0  0  0  0
  8  9  1  0  0  0  0
  9 10  4  0  0  0  0
 10 11  4  0  0  0  0
 11 12  4  0  0  0  0
 12 13  4  0  0  0  0
  9 14  4  0  0  0  0
 13 14  4  0  0  0  0
  8 15  1  0  0  0  0
 15 16  1  0  0  0  0
 16 17  1  0  0  0  0
 17 18  4  0  0  0  0
 18 19  1  0  0  0  0
 18 20  1  0  0  0  0
 20 21  1  0  0  0  0
 21 22  1  0  0  0  0
 22 23  4  0  0  0  0
 23 24  4  0  0  0  0
 24 25  4  0  0  0  0
 25 26  4  0  0  0  0
 22 27  4  0  0  0  0
 26 27  4  0  0  0  0
 17 28  4  0  0  0  0
 21 28  2  0  0  0  0
 16 29  2  0  0  0  0
 15 30  1  0  0  0  0
 30 31  1  0  0  0  0
 31 32  1  0  0  0  0
 31 33  2  0  0  0  0
  7 34  1  0  0  0  0
 30 34  1  0  0  0  0
 34 35  1  0  0  0  0
 35 36  1  0  0  0  0
 36 37  4  0  0  0  0
 37 38  1  0  0  0  0
 37 39  1  0  0  0  0
 39 40  1  0  0  0  0
 40 41  1  0  0  0  0
 41 42  4  0  0  0  0
 42 43  4  0  0  0  0
 43 44  4  0  0  0  0
 44 45  4  0  0  0  0
 41 46  4  0  0  0  0
 45 46  4  0  0  0  0
 36 47  4  0  0  0  0
 40 47  2  0  0  0  0
 35 48  2  0  0  0  0
  1 49  1  0  0  0  0
  2 50  1  0  0  0  0
  3 51  1  0  0  0  0
  4 52  1  0  0  0  0
  5 53  1  0  0  0  0
  7 54  1  0  0  0  0
  8 55  1  0  0  0  0
 10 56  1  0  0  0  0
 11 57  1  0  0  0  0
 12 58  1  0  0  0  0
 13 59  1  0  0  0  0
 14 60  1  0  0  0  0
 19 61  1  0  0  0  0
 19 62  1  0  0  0  0
 19 63  1  0  0  0  0
 23 64  1  0  0  0  0
 24 65  1  0  0  0  0
 25 66  1  0  0  0  0
 26 67  1  0  0  0  0
 27 68  1  0  0  0  0
 28 69  1  0  0  0  0
 30 70  1  0  0  0  0
 32 71  1  0  0  0  0
 38 72  1  0  0  0  0
 38 73  1  0  0  0  0
 38 74  1  0  0  0  0
 42 75  1  0  0  0  0
 43 76  1  0  0  0  0
 44 77  1  0  0  0  0
 45 78  1  0  0  0  0
 46 79  1  0  0  0  0
 47 80  1  0  0  0  0
M  END
