78

O     -2.608967   -0.719258    1.755579
C     -2.272555    0.266951    1.112109
C     -2.805352    1.579140    1.529485
C     -3.852669    2.172627    0.824205
C     -4.280859    3.449471    1.182937
C     -3.675928    4.116884    2.248442
C     -2.620106    3.526098    2.958808
C     -1.982248    4.250170    4.110200
C     -2.198097    2.239631    2.606041
N     -1.381241    0.246367    0.058054
C     -0.712707    1.413160   -0.499521
C     -1.409962    1.864661   -1.826327
O     -2.668882    1.405202   -1.994283
O     -0.940796    2.600100   -2.683296
N      0.640999    0.956813   -0.764025
C      1.693894    1.772795   -1.129254
C      1.821193    3.065688   -0.417916
C      2.693612    3.106285    0.679458
C      2.863948    4.293529    1.404071
C      3.801591    4.331346    2.577819
C      2.124403    5.427320    1.033340
C      1.269868    5.389803   -0.073940
C      1.131124    4.212480   -0.813205
O      2.610775    1.418038   -1.864231
C      0.648349   -0.490677   -0.995444
C      1.838615   -1.222977   -0.393731
C      2.485101   -2.216837   -1.148503
C      3.544462   -2.966770   -0.614941
C      3.970534   -2.721715    0.709167
C      5.029262   -3.477348    1.241948
C      5.658364   -4.458395    0.472851
C      5.237374   -4.700088   -0.832122
C      4.184205   -3.959172   -1.371959
C      3.323442   -1.731233    1.463596
C      2.267256   -0.991983    0.921210
C     -0.678357   -0.981431   -0.325785
C     -1.499601   -1.922865   -1.192412
C     -2.013206   -3.099311   -0.617438
C     -2.692055   -4.063419   -1.383511
C     -2.881920   -3.839959   -2.763419
C     -3.533197   -4.815701   -3.537293
C     -3.989813   -6.001116   -2.955160
C     -3.812971   -6.215772   -1.591240
C     -3.169050   -5.253898   -0.808690
C     -2.406820   -2.648422   -3.331300
C     -1.733293   -1.700241   -2.553820
H     -4.326782    1.653934   -0.004167
H     -5.069164    3.940231    0.627695
H     -4.020158    5.114549    2.517017
H     -0.900503    4.082973    4.118694
H     -2.405135    3.904371    5.060787
H     -2.146400    5.334601    4.030610
H     -1.382683    1.763817    3.152128
H     -0.715952    2.264318    0.184508
H     -2.949413    1.742039   -2.870862
H      3.258255    2.214318    0.945202
H      4.123049    5.354773    2.793725
H      4.704237    3.746906    2.365105
H      3.312560    3.916733    3.467148
H      2.228515    6.355433    1.591021
H      0.721053    6.288869   -0.359651
H      0.489731    4.213211   -1.689429
H      0.659550   -0.620659   -2.083367
H      2.159985   -2.415115   -2.171716
H      5.372497   -3.305464    2.259894
H      6.486485   -5.029124    0.891253
H      5.725592   -5.465110   -1.432173
H      3.869391   -4.162582   -2.393273
H      3.632614   -1.532349    2.489652
H      1.775621   -0.241406    1.534654
H     -0.452723   -1.508486    0.611070
H     -1.869938   -3.275820    0.448399
H     -3.679349   -4.666369   -4.604095
H     -4.486932   -6.749704   -3.568252
H     -4.173663   -7.137146   -1.137286
H     -3.037752   -5.439949    0.254226
H     -2.542897   -2.449276   -4.391612
H     -1.377412   -0.798494   -3.043461
