72

C      1.156043   -2.845119    1.930216
C      0.834157   -1.659086    2.813390
F     -0.267697   -0.959268    2.418578
F      1.843584   -0.745905    2.872355
F      0.583496   -1.999302    4.111225
C      1.564808   -4.034301    2.575398
C      1.895633   -5.180488    1.855310
C      1.833669   -5.163629    0.470094
C      1.443126   -4.000927   -0.192015
C      1.103261   -2.823643    0.512900
C      0.668949   -1.635942   -0.342020
C     -0.880823   -1.467590   -0.370224
C     -1.543707   -2.108058   -1.588369
C     -2.450877   -3.194977   -1.465617
C     -2.831199   -3.800746   -0.127294
F     -3.625994   -4.903900   -0.230068
F     -3.494986   -2.942313    0.690040
F     -1.739064   -4.209514    0.577876
C     -3.030121   -3.742255   -2.629607
C     -2.727406   -3.239008   -3.892302
C     -1.843053   -2.177359   -4.015550
C     -1.259316   -1.618419   -2.878495
N     -1.093716   -0.021039   -0.257699
C     -2.355751    0.487950   -0.019616
C     -2.447271    1.867148    0.410008
C     -2.928068    2.901577   -0.372681
C     -3.400737    2.953621   -1.776715
F     -3.137895    4.151040   -2.364814
F     -4.735879    2.744312   -1.887249
F     -2.781788    2.016509   -2.544316
O     -2.903152    4.071014    0.337740
C     -2.436038    3.779513    1.583033
C     -2.335095    4.910298    2.526721
C     -2.153688    2.435271    1.681675
O     -3.377213   -0.172675   -0.156084
C      0.162770    0.697069   -0.088844
C      0.436046    1.511340   -1.384122
O      0.164194    2.826077   -1.255925
O      0.842800    1.073284   -2.449503
N      1.182830   -0.335789    0.077741
C      2.546511   -0.077072    0.103881
C      2.956049    1.279006    0.422981
C      3.765771    2.069696   -0.378474
C      4.392873    1.881579   -1.713429
F      4.275956    0.619222   -2.191829
F      5.717165    2.183269   -1.709556
F      3.808805    2.694458   -2.637254
O      3.937150    3.295910    0.208865
C      3.272803    3.280314    1.394328
C      3.349680    4.513462    2.202671
C      2.659824    2.062062    1.576204
O      3.385908   -0.933798   -0.142052
H      1.626746   -4.074163    3.663468
H      2.204295   -6.083123    2.376445
H      2.093445   -6.052720   -0.099178
H      1.412600   -4.020012   -1.281731
H      1.063013   -1.774372   -1.358351
H     -1.320219   -1.881189    0.541997
H     -3.734032   -4.571228   -2.555148
H     -3.187732   -3.670424   -4.777565
H     -1.607776   -1.775643   -4.998682
H     -0.578458   -0.784770   -3.023773
H     -3.164422    5.610642    2.389338
H     -2.360776    4.555541    3.562073
H     -1.396466    5.450124    2.370399
H     -1.791789    1.920642    2.562514
H      0.155695    1.347602    0.786246
H      0.392350    3.214515   -2.129603
H      2.803947    4.399419    3.144443
H      4.390807    4.754161    2.439045
H      2.915637    5.356212    1.655894
H      2.079809    1.765909    2.440666
