
  xtb     03172200173D
 xtb: 6.3.3 (4ae9cef)
 72 76  0     0  0            999 V2000
    1.2473   -2.8943    1.8800 C   0  0  0  0  0  0  0  0  0  0  0  0
    0.9428   -1.7461    2.8038 C   0  0  0  0  0  0  0  0  0  0  0  0
   -0.1130   -0.9831    2.4628 F   0  0  0  0  0  0  0  0  0  0  0  0
    1.9749   -0.8829    2.9233 F   0  0  0  0  0  0  0  0  0  0  0  0
    0.6800   -2.1542    4.0550 F   0  0  0  0  0  0  0  0  0  0  0  0
    1.7297   -4.0461    2.4966 C   0  0  0  0  0  0  0  0  0  0  0  0
    2.0745   -5.1570    1.7536 C   0  0  0  0  0  0  0  0  0  0  0  0
    1.9480   -5.1207    0.3770 C   0  0  0  0  0  0  0  0  0  0  0  0
    1.4876   -3.9742   -0.2390 C   0  0  0  0  0  0  0  0  0  0  0  0
    1.1338   -2.8420    0.4877 C   0  0  0  0  0  0  0  0  0  0  0  0
    0.6130   -1.6691   -0.3037 C   0  0  0  0  0  0  0  0  0  0  0  0
   -0.9206   -1.5182   -0.2343 C   0  0  0  0  0  0  0  0  0  0  0  0
   -1.6263   -2.0943   -1.4374 C   0  0  0  0  0  0  0  0  0  0  0  0
   -2.4374   -3.2288   -1.3574 C   0  0  0  0  0  0  0  0  0  0  0  0
   -2.6271   -3.9670   -0.0603 C   0  0  0  0  0  0  0  0  0  0  0  0
   -3.3696   -5.0734   -0.1931 F   0  0  0  0  0  0  0  0  0  0  0  0
   -3.2133   -3.2414    0.9036 F   0  0  0  0  0  0  0  0  0  0  0  0
   -1.4500   -4.3878    0.4672 F   0  0  0  0  0  0  0  0  0  0  0  0
   -3.0856   -3.7094   -2.4891 C   0  0  0  0  0  0  0  0  0  0  0  0
   -2.9324   -3.0700   -3.7050 C   0  0  0  0  0  0  0  0  0  0  0  0
   -2.1207   -1.9532   -3.7953 C   0  0  0  0  0  0  0  0  0  0  0  0
   -1.4721   -1.4749   -2.6720 C   0  0  0  0  0  0  0  0  0  0  0  0
   -1.1126   -0.0751   -0.1315 N   0  0  0  0  0  0  0  0  0  0  0  0
   -2.3618    0.4509   -0.0893 C   0  0  0  0  0  0  0  0  0  0  0  0
   -2.3990    1.9128    0.2054 C   0  0  0  0  0  0  0  0  0  0  0  0
   -2.5915    2.9519   -0.6627 C   0  0  0  0  0  0  0  0  0  0  0  0
   -2.6770    2.9750   -2.1488 C   0  0  0  0  0  0  0  0  0  0  0  0
   -1.6905    3.7251   -2.6921 F   0  0  0  0  0  0  0  0  0  0  0  0
   -3.8238    3.4839   -2.6110 F   0  0  0  0  0  0  0  0  0  0  0  0
   -2.5425    1.7510   -2.6679 F   0  0  0  0  0  0  0  0  0  0  0  0
   -2.6342    4.1268    0.0006 O   0  0  0  0  0  0  0  0  0  0  0  0
   -2.4873    3.8534    1.3097 C   0  0  0  0  0  0  0  0  0  0  0  0
   -2.5164    4.9788    2.2755 C   0  0  0  0  0  0  0  0  0  0  0  0
   -2.3366    2.5084    1.4934 C   0  0  0  0  0  0  0  0  0  0  0  0
   -3.3600   -0.2090   -0.2498 O   0  0  0  0  0  0  0  0  0  0  0  0
    0.1214    0.6536    0.0294 C   0  0  0  0  0  0  0  0  0  0  0  0
    0.3975    1.5139   -1.2281 C   0  0  0  0  0  0  0  0  0  0  0  0
    0.4429    2.8114   -0.9461 O   0  0  0  0  0  0  0  0  0  0  0  0
    0.5521    1.0509   -2.3203 O   0  0  0  0  0  0  0  0  0  0  0  0
    1.1193   -0.3805    0.1493 N   0  0  0  0  0  0  0  0  0  0  0  0
    2.4637   -0.1673    0.2114 C   0  0  0  0  0  0  0  0  0  0  0  0
    2.8401    1.2485    0.4846 C   0  0  0  0  0  0  0  0  0  0  0  0
    3.4374    2.1249   -0.3810 C   0  0  0  0  0  0  0  0  0  0  0  0
    3.7523    2.0199   -1.8339 C   0  0  0  0  0  0  0  0  0  0  0  0
    3.5134    0.8027   -2.3168 F   0  0  0  0  0  0  0  0  0  0  0  0
    5.0226    2.3272   -2.1189 F   0  0  0  0  0  0  0  0  0  0  0  0
    2.9925    2.8784   -2.5564 F   0  0  0  0  0  0  0  0  0  0  0  0
    3.6701    3.3086    0.2240 O   0  0  0  0  0  0  0  0  0  0  0  0
    3.2468    3.1989    1.4964 C   0  0  0  0  0  0  0  0  0  0  0  0
    3.4066    4.3667    2.3968 C   0  0  0  0  0  0  0  0  0  0  0  0
    2.7234    1.9562    1.7106 C   0  0  0  0  0  0  0  0  0  0  0  0
    3.2708   -1.0571    0.0935 O   0  0  0  0  0  0  0  0  0  0  0  0
    1.8294   -4.0696    3.5708 H   0  0  0  0  0  0  0  0  0  0  0  0
    2.4415   -6.0411    2.2502 H   0  0  0  0  0  0  0  0  0  0  0  0
    2.2132   -5.9805   -0.2182 H   0  0  0  0  0  0  0  0  0  0  0  0
    1.4005   -3.9471   -1.3143 H   0  0  0  0  0  0  0  0  0  0  0  0
    0.9190   -1.8088   -1.3499 H   0  0  0  0  0  0  0  0  0  0  0  0
   -1.3115   -1.9674    0.6828 H   0  0  0  0  0  0  0  0  0  0  0  0
   -3.7147   -4.5825   -2.4128 H   0  0  0  0  0  0  0  0  0  0  0  0
   -3.4476   -3.4452   -4.5753 H   0  0  0  0  0  0  0  0  0  0  0  0
   -1.9927   -1.4463   -4.7388 H   0  0  0  0  0  0  0  0  0  0  0  0
   -0.8463   -0.6005   -2.7552 H   0  0  0  0  0  0  0  0  0  0  0  0
   -3.4942    5.4578    2.2635 H   0  0  0  0  0  0  0  0  0  0  0  0
   -2.3126    4.6108    3.2758 H   0  0  0  0  0  0  0  0  0  0  0  0
   -1.7747    5.7277    2.0041 H   0  0  0  0  0  0  0  0  0  0  0  0
   -2.2124    1.9874    2.4198 H   0  0  0  0  0  0  0  0  0  0  0  0
    0.1044    1.3071    0.9137 H   0  0  0  0  0  0  0  0  0  0  0  0
    0.6125    3.3394   -1.7489 H   0  0  0  0  0  0  0  0  0  0  0  0
    2.9811    4.1422    3.3693 H   0  0  0  0  0  0  0  0  0  0  0  0
    4.4619    4.6075    2.5143 H   0  0  0  0  0  0  0  0  0  0  0  0
    2.9105    5.2387    1.9742 H   0  0  0  0  0  0  0  0  0  0  0  0
    2.3299    1.5678    2.6255 H   0  0  0  0  0  0  0  0  0  0  0  0
  1  2  1  0  0  0  0
  2  3  1  0  0  0  0
  2  4  1  0  0  0  0
  2  5  1  0  0  0  0
  1  6  4  0  0  0  0
  6  7  4  0  0  0  0
  7  8  4  0  0  0  0
  8  9  4  0  0  0  0
  1 10  4  0  0  0  0
  9 10  4  0  0  0  0
 10 11  1  0  0  0  0
 11 12  1  0  0  0  0
 12 13  1  0  0  0  0
 13 14  4  0  0  0  0
 14 15  1  0  0  0  0
 15 16  1  0  0  0  0
 15 17  1  0  0  0  0
 15 18  1  0  0  0  0
 14 19  4  0  0  0  0
 19 20  4  0  0  0  0
 20 21  4  0  0  0  0
 13 22  4  0  0  0  0
 21 22  4  0  0  0  0
 12 23  1  0  0  0  0
 23 24  4  0  0  0  0
 24 25  1  0  0  0  0
 25 26  2  0  0  0  0
 26 27  1  0  0  0  0
 27 28  1  0  0  0  0
 27 29  1  0  0  0  0
 27 30  1  0  0  0  0
 26 31  1  0  0  0  0
 31 32  1  0  0  0  0
 32 33  1  0  0  0  0
 25 34  4  0  0  0  0
 32 34  2  0  0  0  0
 24 35  2  0  0  0  0
 23 36  1  0  0  0  0
 36 37  1  0  0  0  0
 37 38  1  0  0  0  0
 37 39  2  0  0  0  0
 11 40  1  0  0  0  0
 36 40  1  0  0  0  0
 40 41  1  0  0  0  0
 41 42  1  0  0  0  0
 42 43  2  0  0  0  0
 43 44  1  0  0  0  0
 44 45  1  0  0  0  0
 44 46  1  0  0  0  0
 44 47  1  0  0  0  0
 43 48  1  0  0  0  0
 48 49  1  0  0  0  0
 49 50  1  0  0  0  0
 42 51  4  0  0  0  0
 49 51  2  0  0  0  0
 41 52  2  0  0  0  0
  6 53  1  0  0  0  0
  7 54  1  0  0  0  0
  8 55  1  0  0  0  0
  9 56  1  0  0  0  0
 11 57  1  0  0  0  0
 12 58  1  0  0  0  0
 19 59  1  0  0  0  0
 20 60  1  0  0  0  0
 21 61  1  0  0  0  0
 22 62  1  0  0  0  0
 33 63  1  0  0  0  0
 33 64  1  0  0  0  0
 33 65  1  0  0  0  0
 34 66  1  0  0  0  0
 36 67  1  0  0  0  0
 38 68  1  0  0  0  0
 50 69  1  0  0  0  0
 50 70  1  0  0  0  0
 50 71  1  0  0  0  0
 51 72  1  0  0  0  0
M  END
