68

C      0.267055   -2.970850   -0.444082
O     -1.025222   -3.076398   -0.897246
C     -1.544057   -4.384760   -1.104999
C      1.105330   -4.057724   -0.166477
C      2.418045   -3.853380    0.263088
C      2.905614   -2.563825    0.434553
C      2.076744   -1.475515    0.170738
C      0.754483   -1.658983   -0.281116
C     -0.136094   -0.454414   -0.559589
C     -0.552498    0.226097    0.773418
C     -1.932347   -0.172400    1.265563
C     -3.104286    0.317496    0.667343
C     -4.366539   -0.060069    1.138859
C     -4.485669   -0.942002    2.208007
C     -3.336629   -1.446434    2.811643
C     -2.072785   -1.056791    2.348231
O     -0.954409   -1.603190    2.918079
C     -0.765648   -1.117865    4.252309
N     -0.418922    1.671178    0.539904
C     -0.184078    2.498345    1.630597
C     -0.108282    3.925933    1.373307
C      0.898284    4.752131    1.840193
C      2.126877    4.509084    2.627625
O      0.665292    6.038829    1.465246
C     -0.506191    6.048589    0.780837
C     -1.028506    4.781755    0.703417
O     -0.028537    2.068778    2.772888
C      0.201486    1.930034   -0.754615
C     -0.813425    2.575565   -1.735528
O     -0.419445    3.776811   -2.213053
O     -1.870329    2.086668   -2.110837
N      0.540116    0.626620   -1.296246
C      1.278083    0.565849   -2.458052
C      1.297589   -0.683829   -3.193871
C      2.437768   -1.406154   -3.507335
C      3.875230   -1.225164   -3.217898
O      2.109586   -2.537375   -4.196194
C      0.761227   -2.521916   -4.367977
C      0.212130   -1.411002   -3.769625
O      1.906528    1.542541   -2.858736
H     -2.554973   -4.279007   -1.523609
H     -0.943277   -4.938278   -1.833621
H     -1.627268   -4.932994   -0.157262
H      0.769589   -5.084703   -0.282442
H      3.060394   -4.704980    0.466894
H      3.925609   -2.391202    0.754671
H      2.476815   -0.472532    0.318687
H     -1.009870   -0.717225   -1.162630
H      0.185903   -0.004809    1.551518
H     -3.054503    0.999605   -0.175971
H     -5.261855    0.322863    0.654028
H     -5.464247   -1.246851    2.566924
H     -3.428802   -2.163325    3.622478
H     -0.951220   -0.039462    4.331354
H      0.274720   -1.307064    4.534299
H     -1.406234   -1.665012    4.954101
H      1.896306    4.395115    3.689776
H      2.620861    3.595198    2.282475
H      2.836282    5.335081    2.506515
H     -0.832569    7.017849    0.440364
H     -1.970440    4.510050    0.246839
H      1.101935    2.546745   -0.662439
H     -1.086711    4.013049   -2.891758
H      4.421635   -0.977915   -4.128818
H      4.297456   -2.143867   -2.790443
H      4.033555   -0.420831   -2.496216
H      0.346151   -3.356377   -4.914496
H     -0.838810   -1.151385   -3.753586
