
  xtb     03162222553D
 xtb: 6.3.3 (4ae9cef)
 84 90  0     0  0            999 V2000
    2.3607    2.7279    1.9905 C   0  0  0  0  0  0  0  0  0  0  0  0
    3.5576    3.2595    1.6068 C   0  0  0  0  0  0  0  0  0  0  0  0
    4.2622    2.7356    0.5024 C   0  0  0  0  0  0  0  0  0  0  0  0
    5.4951    3.2657    0.0707 C   0  0  0  0  0  0  0  0  0  0  0  0
    6.1457    2.7314   -1.0064 C   0  0  0  0  0  0  0  0  0  0  0  0
    5.5961    1.6402   -1.6977 C   0  0  0  0  0  0  0  0  0  0  0  0
    4.4039    1.1020   -1.3018 C   0  0  0  0  0  0  0  0  0  0  0  0
    3.7061    1.6352   -0.1984 C   0  0  0  0  0  0  0  0  0  0  0  0
    2.4677    1.1121    0.2217 C   0  0  0  0  0  0  0  0  0  0  0  0
    1.7997    1.6401    1.2937 C   0  0  0  0  0  0  0  0  0  0  0  0
    0.4337    1.1388    1.6979 C   0  0  0  0  0  0  0  0  0  0  0  0
   -0.6503    1.9402    0.9355 C   0  0  0  0  0  0  0  0  0  0  0  0
   -1.9743    2.0874    1.6459 C   0  0  0  0  0  0  0  0  0  0  0  0
   -2.0517    2.3415    2.9900 C   0  0  0  0  0  0  0  0  0  0  0  0
   -3.2951    2.4908    3.6371 C   0  0  0  0  0  0  0  0  0  0  0  0
   -3.3897    2.7460    5.0213 C   0  0  0  0  0  0  0  0  0  0  0  0
   -4.6087    2.8850    5.6232 C   0  0  0  0  0  0  0  0  0  0  0  0
   -5.7890    2.7750    4.8708 C   0  0  0  0  0  0  0  0  0  0  0  0
   -5.7305    2.5288    3.5277 C   0  0  0  0  0  0  0  0  0  0  0  0
   -4.4881    2.3829    2.8769 C   0  0  0  0  0  0  0  0  0  0  0  0
   -4.3831    2.1497    1.4901 C   0  0  0  0  0  0  0  0  0  0  0  0
   -3.1637    2.0137    0.8915 C   0  0  0  0  0  0  0  0  0  0  0  0
   -0.7737    1.1566   -0.2885 N   0  0  0  0  0  0  0  0  0  0  0  0
   -0.3038    1.6839   -1.4696 C   0  0  0  0  0  0  0  0  0  0  0  0
   -0.0331    0.7127   -2.5623 C   0  0  0  0  0  0  0  0  0  0  0  0
   -0.9215   -0.2919   -2.9259 C   0  0  0  0  0  0  0  0  0  0  0  0
   -0.5791   -1.2002   -3.9210 C   0  0  0  0  0  0  0  0  0  0  0  0
   -1.5390   -2.2847   -4.3025 C   0  0  0  0  0  0  0  0  0  0  0  0
    0.6541   -1.0808   -4.5457 C   0  0  0  0  0  0  0  0  0  0  0  0
    1.5423   -0.0620   -4.2157 C   0  0  0  0  0  0  0  0  0  0  0  0
    2.8584    0.0506   -4.9233 C   0  0  0  0  0  0  0  0  0  0  0  0
    1.1860    0.8365   -3.2231 C   0  0  0  0  0  0  0  0  0  0  0  0
   -0.1167    2.8765   -1.5846 O   0  0  0  0  0  0  0  0  0  0  0  0
   -0.6859   -0.2288    0.0957 C   0  0  0  0  0  0  0  0  0  0  0  0
   -2.0848   -0.7717    0.4526 C   0  0  0  0  0  0  0  0  0  0  0  0
   -2.2657   -0.9106    1.7582 O   0  0  0  0  0  0  0  0  0  0  0  0
   -2.9121   -1.0506   -0.3712 O   0  0  0  0  0  0  0  0  0  0  0  0
    0.1996   -0.2198    1.2362 N   0  0  0  0  0  0  0  0  0  0  0  0
    0.7460   -1.3137    1.8272 C   0  0  0  0  0  0  0  0  0  0  0  0
    0.4581   -2.5811    1.0808 C   0  0  0  0  0  0  0  0  0  0  0  0
    1.0570   -2.8010   -0.1524 C   0  0  0  0  0  0  0  0  0  0  0  0
    0.7679   -3.9445   -0.8848 C   0  0  0  0  0  0  0  0  0  0  0  0
    1.4146   -4.1612   -2.2189 C   0  0  0  0  0  0  0  0  0  0  0  0
   -0.1209   -4.8675   -0.3537 C   0  0  0  0  0  0  0  0  0  0  0  0
   -0.7075   -4.6785    0.8915 C   0  0  0  0  0  0  0  0  0  0  0  0
   -1.6669   -5.6924    1.4362 C   0  0  0  0  0  0  0  0  0  0  0  0
   -0.4109   -3.5256    1.6056 C   0  0  0  0  0  0  0  0  0  0  0  0
    1.4047   -1.2455    2.8412 O   0  0  0  0  0  0  0  0  0  0  0  0
    1.8263    3.1385    2.8350 H   0  0  0  0  0  0  0  0  0  0  0  0
    3.9825    4.0948    2.1447 H   0  0  0  0  0  0  0  0  0  0  0  0
    5.9160    4.1043    0.6069 H   0  0  0  0  0  0  0  0  0  0  0  0
    7.0891    3.1436   -1.3334 H   0  0  0  0  0  0  0  0  0  0  0  0
    6.1261    1.2293   -2.5449 H   0  0  0  0  0  0  0  0  0  0  0  0
    3.9770    0.2597   -1.8284 H   0  0  0  0  0  0  0  0  0  0  0  0
    2.0586    0.2760   -0.3277 H   0  0  0  0  0  0  0  0  0  0  0  0
    0.3215    1.1757    2.7832 H   0  0  0  0  0  0  0  0  0  0  0  0
   -0.2814    2.9343    0.6530 H   0  0  0  0  0  0  0  0  0  0  0  0
   -1.1581    2.4436    3.5881 H   0  0  0  0  0  0  0  0  0  0  0  0
   -2.4793    2.8293    5.5974 H   0  0  0  0  0  0  0  0  0  0  0  0
   -4.6739    3.0816    6.6833 H   0  0  0  0  0  0  0  0  0  0  0  0
   -6.7433    2.8890    5.3636 H   0  0  0  0  0  0  0  0  0  0  0  0
   -6.6355    2.4461    2.9426 H   0  0  0  0  0  0  0  0  0  0  0  0
   -5.2873    2.0877    0.9018 H   0  0  0  0  0  0  0  0  0  0  0  0
   -3.0985    1.8548   -0.1743 H   0  0  0  0  0  0  0  0  0  0  0  0
   -1.8846   -0.3704   -2.4442 H   0  0  0  0  0  0  0  0  0  0  0  0
   -2.0727   -2.6459   -3.4263 H   0  0  0  0  0  0  0  0  0  0  0  0
   -2.2752   -1.8967   -5.0066 H   0  0  0  0  0  0  0  0  0  0  0  0
   -1.0224   -3.1164   -4.7755 H   0  0  0  0  0  0  0  0  0  0  0  0
    0.9298   -1.7893   -5.3152 H   0  0  0  0  0  0  0  0  0  0  0  0
    2.6995    0.2122   -5.9887 H   0  0  0  0  0  0  0  0  0  0  0  0
    3.4336   -0.8681   -4.8105 H   0  0  0  0  0  0  0  0  0  0  0  0
    3.4402    0.8800   -4.5296 H   0  0  0  0  0  0  0  0  0  0  0  0
    1.8521    1.6383   -2.9402 H   0  0  0  0  0  0  0  0  0  0  0  0
   -0.3102   -0.8436   -0.7314 H   0  0  0  0  0  0  0  0  0  0  0  0
   -3.1592   -1.2363    1.9548 H   0  0  0  0  0  0  0  0  0  0  0  0
    1.7646   -2.0836   -0.5457 H   0  0  0  0  0  0  0  0  0  0  0  0
    2.4605   -4.4381   -2.0859 H   0  0  0  0  0  0  0  0  0  0  0  0
    0.9169   -4.9564   -2.7679 H   0  0  0  0  0  0  0  0  0  0  0  0
    1.3818   -3.2478   -2.8111 H   0  0  0  0  0  0  0  0  0  0  0  0
   -0.3587   -5.7589   -0.9173 H   0  0  0  0  0  0  0  0  0  0  0  0
   -1.7749   -5.5859    2.5125 H   0  0  0  0  0  0  0  0  0  0  0  0
   -2.6479   -5.5605    0.9783 H   0  0  0  0  0  0  0  0  0  0  0  0
   -1.3281   -6.7018    1.2135 H   0  0  0  0  0  0  0  0  0  0  0  0
   -0.8559   -3.3530    2.5744 H   0  0  0  0  0  0  0  0  0  0  0  0
  1  2  2  0  0  0  0
  2  3  4  0  0  0  0
  3  4  4  0  0  0  0
  4  5  2  0  0  0  0
  5  6  4  0  0  0  0
  6  7  2  0  0  0  0
  3  8  4  0  0  0  0
  7  8  4  0  0  0  0
  8  9  4  0  0  0  0
  1 10  4  0  0  0  0
  9 10  2  0  0  0  0
 10 11  1  0  0  0  0
 11 12  1  0  0  0  0
 12 13  1  0  0  0  0
 13 14  2  0  0  0  0
 14 15  4  0  0  0  0
 15 16  4  0  0  0  0
 16 17  2  0  0  0  0
 17 18  4  0  0  0  0
 18 19  2  0  0  0  0
 15 20  4  0  0  0  0
 19 20  4  0  0  0  0
 20 21  4  0  0  0  0
 13 22  4  0  0  0  0
 21 22  2  0  0  0  0
 12 23  1  0  0  0  0
 23 24  1  0  0  0  0
 24 25  1  0  0  0  0
 25 26  4  0  0  0  0
 26 27  4  0  0  0  0
 27 28  1  0  0  0  0
 27 29  4  0  0  0  0
 29 30  4  0  0  0  0
 30 31  1  0  0  0  0
 25 32  4  0  0  0  0
 30 32  4  0  0  0  0
 24 33  2  0  0  0  0
 23 34  1  0  0  0  0
 34 35  1  0  0  0  0
 35 36  1  0  0  0  0
 35 37  2  0  0  0  0
 11 38  1  0  0  0  0
 34 38  1  0  0  0  0
 38 39  4  0  0  0  0
 39 40  1  0  0  0  0
 40 41  4  0  0  0  0
 41 42  4  0  0  0  0
 42 43  1  0  0  0  0
 42 44  4  0  0  0  0
 44 45  4  0  0  0  0
 45 46  1  0  0  0  0
 40 47  4  0  0  0  0
 45 47  4  0  0  0  0
 39 48  2  0  0  0  0
  1 49  1  0  0  0  0
  2 50  1  0  0  0  0
  4 51  1  0  0  0  0
  5 52  1  0  0  0  0
  6 53  1  0  0  0  0
  7 54  1  0  0  0  0
  9 55  1  0  0  0  0
 11 56  1  0  0  0  0
 12 57  1  0  0  0  0
 14 58  1  0  0  0  0
 16 59  1  0  0  0  0
 17 60  1  0  0  0  0
 18 61  1  0  0  0  0
 19 62  1  0  0  0  0
 21 63  1  0  0  0  0
 22 64  1  0  0  0  0
 26 65  1  0  0  0  0
 28 66  1  0  0  0  0
 28 67  1  0  0  0  0
 28 68  1  0  0  0  0
 29 69  1  0  0  0  0
 31 70  1  0  0  0  0
 31 71  1  0  0  0  0
 31 72  1  0  0  0  0
 32 73  1  0  0  0  0
 34 74  1  0  0  0  0
 36 75  1  0  0  0  0
 41 76  1  0  0  0  0
 43 77  1  0  0  0  0
 43 78  1  0  0  0  0
 43 79  1  0  0  0  0
 44 80  1  0  0  0  0
 46 81  1  0  0  0  0
 46 82  1  0  0  0  0
 46 83  1  0  0  0  0
 47 84  1  0  0  0  0
M  END
