
  xtb     03162223173D
 xtb: 6.3.3 (4ae9cef)
 74 80  0     0  0            999 V2000
    3.2266    2.2688    0.4566 C   0  0  0  0  0  0  0  0  0  0  0  0
    4.4005    2.5009   -0.1993 C   0  0  0  0  0  0  0  0  0  0  0  0
    4.8745    1.5997   -1.1762 C   0  0  0  0  0  0  0  0  0  0  0  0
    6.0856    1.8016   -1.8689 C   0  0  0  0  0  0  0  0  0  0  0  0
    6.5118    0.9000   -2.8040 C   0  0  0  0  0  0  0  0  0  0  0  0
    5.7490   -0.2438   -3.0880 C   0  0  0  0  0  0  0  0  0  0  0  0
    4.5697   -0.4678   -2.4343 C   0  0  0  0  0  0  0  0  0  0  0  0
    4.1037    0.4452   -1.4660 C   0  0  0  0  0  0  0  0  0  0  0  0
    2.8911    0.2386   -0.7779 C   0  0  0  0  0  0  0  0  0  0  0  0
    2.4571    1.1232    0.1706 C   0  0  0  0  0  0  0  0  0  0  0  0
    1.1454    0.9475    0.8976 C   0  0  0  0  0  0  0  0  0  0  0  0
    0.0342    1.7362    0.1897 C   0  0  0  0  0  0  0  0  0  0  0  0
   -1.1553    2.1471    1.0268 C   0  0  0  0  0  0  0  0  0  0  0  0
   -1.3446    1.7741    2.3306 C   0  0  0  0  0  0  0  0  0  0  0  0
   -2.5267    2.1203    3.0193 C   0  0  0  0  0  0  0  0  0  0  0  0
   -2.7405    1.7397    4.3600 C   0  0  0  0  0  0  0  0  0  0  0  0
   -3.8980    2.0780    5.0036 C   0  0  0  0  0  0  0  0  0  0  0  0
   -4.8925    2.8107    4.3369 C   0  0  0  0  0  0  0  0  0  0  0  0
   -4.7154    3.1907    3.0355 C   0  0  0  0  0  0  0  0  0  0  0  0
   -3.5333    2.8570    2.3435 C   0  0  0  0  0  0  0  0  0  0  0  0
   -3.3140    3.2278    0.9992 C   0  0  0  0  0  0  0  0  0  0  0  0
   -2.1585    2.8861    0.3611 C   0  0  0  0  0  0  0  0  0  0  0  0
   -0.4218    0.7429   -0.7795 N   0  0  0  0  0  0  0  0  0  0  0  0
   -0.5747    1.0152   -2.0979 C   0  0  0  0  0  0  0  0  0  0  0  0
   -0.9615   -0.1577   -2.9458 C   0  0  0  0  0  0  0  0  0  0  0  0
   -2.3078   -0.3456   -3.2781 C   0  0  0  0  0  0  0  0  0  0  0  0
   -3.2927    0.5374   -2.7748 C   0  0  0  0  0  0  0  0  0  0  0  0
   -4.1116    1.2332   -2.3762 N   0  0  0  0  0  0  0  0  0  0  0  0
   -2.6809   -1.4054   -4.1043 C   0  0  0  0  0  0  0  0  0  0  0  0
   -1.7156   -2.2622   -4.5989 C   0  0  0  0  0  0  0  0  0  0  0  0
   -0.3795   -2.0635   -4.2859 C   0  0  0  0  0  0  0  0  0  0  0  0
   -0.0016   -1.0122   -3.4662 C   0  0  0  0  0  0  0  0  0  0  0  0
   -0.4287    2.1292   -2.5490 O   0  0  0  0  0  0  0  0  0  0  0  0
   -0.4480   -0.5242   -0.1061 C   0  0  0  0  0  0  0  0  0  0  0  0
   -1.7976   -0.7328    0.6223 C   0  0  0  0  0  0  0  0  0  0  0  0
   -2.8074   -0.4241   -0.1781 O   0  0  0  0  0  0  0  0  0  0  0  0
   -1.9148   -1.1581    1.7360 O   0  0  0  0  0  0  0  0  0  0  0  0
    0.6481   -0.4275    0.8347 N   0  0  0  0  0  0  0  0  0  0  0  0
    1.0420   -1.3243    1.7745 C   0  0  0  0  0  0  0  0  0  0  0  0
    0.4616   -2.7035    1.7278 C   0  0  0  0  0  0  0  0  0  0  0  0
   -0.1186   -3.1887    2.8930 C   0  0  0  0  0  0  0  0  0  0  0  0
   -0.6206   -4.4757    2.9518 C   0  0  0  0  0  0  0  0  0  0  0  0
   -0.5257   -5.3146    1.8509 C   0  0  0  0  0  0  0  0  0  0  0  0
    0.0784   -4.8657    0.6945 C   0  0  0  0  0  0  0  0  0  0  0  0
    0.5750   -3.5607    0.6265 C   0  0  0  0  0  0  0  0  0  0  0  0
    1.2072   -3.1585   -0.5684 C   0  0  0  0  0  0  0  0  0  0  0  0
    1.6975   -2.8601   -1.5628 N   0  0  0  0  0  0  0  0  0  0  0  0
    1.8406   -1.0218    2.6378 O   0  0  0  0  0  0  0  0  0  0  0  0
    2.8726    2.9613    1.2069 H   0  0  0  0  0  0  0  0  0  0  0  0
    4.9872    3.3801    0.0252 H   0  0  0  0  0  0  0  0  0  0  0  0
    6.6713    2.6821   -1.6458 H   0  0  0  0  0  0  0  0  0  0  0  0
    7.4414    1.0600   -3.3308 H   0  0  0  0  0  0  0  0  0  0  0  0
    6.1049   -0.9461   -3.8276 H   0  0  0  0  0  0  0  0  0  0  0  0
    3.9797   -1.3494   -2.6399 H   0  0  0  0  0  0  0  0  0  0  0  0
    2.3242   -0.6508   -1.0080 H   0  0  0  0  0  0  0  0  0  0  0  0
    1.2779    1.2373    1.9434 H   0  0  0  0  0  0  0  0  0  0  0  0
    0.4249    2.5955   -0.3633 H   0  0  0  0  0  0  0  0  0  0  0  0
   -0.6088    1.1947    2.8683 H   0  0  0  0  0  0  0  0  0  0  0  0
   -1.9722    1.1737    4.8666 H   0  0  0  0  0  0  0  0  0  0  0  0
   -4.0561    1.7845    6.0310 H   0  0  0  0  0  0  0  0  0  0  0  0
   -5.7995    3.0716    4.8624 H   0  0  0  0  0  0  0  0  0  0  0  0
   -5.4777    3.7540    2.5166 H   0  0  0  0  0  0  0  0  0  0  0  0
   -4.0793    3.7836    0.4784 H   0  0  0  0  0  0  0  0  0  0  0  0
   -1.9991    3.1644   -0.6696 H   0  0  0  0  0  0  0  0  0  0  0  0
   -3.7232   -1.5422   -4.3521 H   0  0  0  0  0  0  0  0  0  0  0  0
   -2.0055   -3.0825   -5.2381 H   0  0  0  0  0  0  0  0  0  0  0  0
    0.3742   -2.7274   -4.6795 H   0  0  0  0  0  0  0  0  0  0  0  0
    1.0397   -0.8527   -3.2321 H   0  0  0  0  0  0  0  0  0  0  0  0
   -0.3313   -1.3507   -0.8210 H   0  0  0  0  0  0  0  0  0  0  0  0
   -3.6658   -0.4946    0.2717 H   0  0  0  0  0  0  0  0  0  0  0  0
   -0.1787   -2.5349    3.7483 H   0  0  0  0  0  0  0  0  0  0  0  0
   -1.0809   -4.8304    3.8613 H   0  0  0  0  0  0  0  0  0  0  0  0
   -0.9122   -6.3214    1.8980 H   0  0  0  0  0  0  0  0  0  0  0  0
    0.1808   -5.5127   -0.1647 H   0  0  0  0  0  0  0  0  0  0  0  0
  1  2  2  0  0  0  0
  2  3  4  0  0  0  0
  3  4  4  0  0  0  0
  4  5  2  0  0  0  0
  5  6  4  0  0  0  0
  6  7  2  0  0  0  0
  3  8  4  0  0  0  0
  7  8  4  0  0  0  0
  8  9  4  0  0  0  0
  1 10  4  0  0  0  0
  9 10  2  0  0  0  0
 10 11  1  0  0  0  0
 11 12  1  0  0  0  0
 12 13  1  0  0  0  0
 13 14  2  0  0  0  0
 14 15  4  0  0  0  0
 15 16  4  0  0  0  0
 16 17  2  0  0  0  0
 17 18  4  0  0  0  0
 18 19  2  0  0  0  0
 15 20  4  0  0  0  0
 19 20  4  0  0  0  0
 20 21  4  0  0  0  0
 13 22  4  0  0  0  0
 21 22  2  0  0  0  0
 12 23  1  0  0  0  0
 23 24  4  0  0  0  0
 24 25  1  0  0  0  0
 25 26  4  0  0  0  0
 26 27  1  0  0  0  0
 27 28  3  0  0  0  0
 26 29  4  0  0  0  0
 29 30  4  0  0  0  0
 30 31  4  0  0  0  0
 25 32  4  0  0  0  0
 31 32  4  0  0  0  0
 24 33  2  0  0  0  0
 23 34  1  0  0  0  0
 34 35  1  0  0  0  0
 35 36  1  0  0  0  0
 35 37  2  0  0  0  0
 11 38  1  0  0  0  0
 34 38  1  0  0  0  0
 38 39  4  0  0  0  0
 39 40  1  0  0  0  0
 40 41  4  0  0  0  0
 41 42  4  0  0  0  0
 42 43  4  0  0  0  0
 43 44  4  0  0  0  0
 40 45  4  0  0  0  0
 44 45  4  0  0  0  0
 45 46  1  0  0  0  0
 46 47  3  0  0  0  0
 39 48  2  0  0  0  0
  1 49  1  0  0  0  0
  2 50  1  0  0  0  0
  4 51  1  0  0  0  0
  5 52  1  0  0  0  0
  6 53  1  0  0  0  0
  7 54  1  0  0  0  0
  9 55  1  0  0  0  0
 11 56  1  0  0  0  0
 12 57  1  0  0  0  0
 14 58  1  0  0  0  0
 16 59  1  0  0  0  0
 17 60  1  0  0  0  0
 18 61  1  0  0  0  0
 19 62  1  0  0  0  0
 21 63  1  0  0  0  0
 22 64  1  0  0  0  0
 29 65  1  0  0  0  0
 30 66  1  0  0  0  0
 31 67  1  0  0  0  0
 32 68  1  0  0  0  0
 34 69  1  0  0  0  0
 36 70  1  0  0  0  0
 41 71  1  0  0  0  0
 42 72  1  0  0  0  0
 43 73  1  0  0  0  0
 44 74  1  0  0  0  0
M  END
