
  xtb     03172201303D
 xtb: 6.3.3 (4ae9cef)
 60 64  0     0  0            999 V2000
    0.6538    2.9454    0.7019 O   0  0  0  0  0  0  0  0  0  0  0  0
    1.2023    1.9102    0.3616 C   0  0  0  0  0  0  0  0  0  0  0  0
    2.6647    1.6789    0.5091 C   0  0  0  0  0  0  0  0  0  0  0  0
    3.4610    1.3454   -0.5801 C   0  0  0  0  0  0  0  0  0  0  0  0
    4.8176    1.1408   -0.4117 C   0  0  0  0  0  0  0  0  0  0  0  0
    5.3574    1.2693    0.8557 C   0  0  0  0  0  0  0  0  0  0  0  0
    6.6742    1.0449    1.0270 F   0  0  0  0  0  0  0  0  0  0  0  0
    4.5892    1.6282    1.9489 C   0  0  0  0  0  0  0  0  0  0  0  0
    3.2379    1.8470    1.7649 C   0  0  0  0  0  0  0  0  0  0  0  0
    0.4811    0.9108   -0.1969 N   0  0  0  0  0  0  0  0  0  0  0  0
   -0.9529    1.1068   -0.3041 C   0  0  0  0  0  0  0  0  0  0  0  0
   -1.4497    1.9222    0.9134 C   0  0  0  0  0  0  0  0  0  0  0  0
   -2.0938    3.0207    0.5433 O   0  0  0  0  0  0  0  0  0  0  0  0
   -1.3577    1.5265    2.0435 O   0  0  0  0  0  0  0  0  0  0  0  0
   -1.4865   -0.2281   -0.3231 N   0  0  0  0  0  0  0  0  0  0  0  0
   -2.7494   -0.6106    0.0083 C   0  0  0  0  0  0  0  0  0  0  0  0
   -3.7444    0.5008    0.0831 C   0  0  0  0  0  0  0  0  0  0  0  0
   -4.0417    1.2485   -1.0510 C   0  0  0  0  0  0  0  0  0  0  0  0
   -4.9917    2.2507   -0.9955 C   0  0  0  0  0  0  0  0  0  0  0  0
   -5.6303    2.4926    0.2077 C   0  0  0  0  0  0  0  0  0  0  0  0
   -6.5437    3.4821    0.2733 F   0  0  0  0  0  0  0  0  0  0  0  0
   -5.3652    1.7494    1.3441 C   0  0  0  0  0  0  0  0  0  0  0  0
   -4.4238    0.7390    1.2719 C   0  0  0  0  0  0  0  0  0  0  0  0
   -3.0374   -1.7747    0.1832 O   0  0  0  0  0  0  0  0  0  0  0  0
   -0.4540   -1.2464   -0.4657 C   0  0  0  0  0  0  0  0  0  0  0  0
   -0.5879   -1.9601   -1.7882 C   0  0  0  0  0  0  0  0  0  0  0  0
   -0.6957   -1.2334   -2.9678 C   0  0  0  0  0  0  0  0  0  0  0  0
   -0.8307   -1.8842   -4.1806 C   0  0  0  0  0  0  0  0  0  0  0  0
   -0.8540   -3.2680   -4.2259 C   0  0  0  0  0  0  0  0  0  0  0  0
   -0.7421   -3.9968   -3.0545 C   0  0  0  0  0  0  0  0  0  0  0  0
   -0.6116   -3.3458   -1.8401 C   0  0  0  0  0  0  0  0  0  0  0  0
    0.8815   -0.4825   -0.3306 C   0  0  0  0  0  0  0  0  0  0  0  0
    1.6798   -0.9604    0.8566 C   0  0  0  0  0  0  0  0  0  0  0  0
    1.2146   -0.7286    2.1459 C   0  0  0  0  0  0  0  0  0  0  0  0
    1.9522   -1.1576    3.2341 C   0  0  0  0  0  0  0  0  0  0  0  0
    3.1513   -1.8245    3.0453 C   0  0  0  0  0  0  0  0  0  0  0  0
    3.6084   -2.0711    1.7624 C   0  0  0  0  0  0  0  0  0  0  0  0
    2.8736   -1.6427    0.6712 C   0  0  0  0  0  0  0  0  0  0  0  0
    3.0250    1.2603   -1.5640 H   0  0  0  0  0  0  0  0  0  0  0  0
    5.4554    0.8830   -1.2422 H   0  0  0  0  0  0  0  0  0  0  0  0
    5.0501    1.7350    2.9177 H   0  0  0  0  0  0  0  0  0  0  0  0
    2.6117    2.1350    2.5947 H   0  0  0  0  0  0  0  0  0  0  0  0
   -1.1953    1.6808   -1.2144 H   0  0  0  0  0  0  0  0  0  0  0  0
   -2.3364    3.5505    1.3191 H   0  0  0  0  0  0  0  0  0  0  0  0
   -3.5417    1.0331   -1.9835 H   0  0  0  0  0  0  0  0  0  0  0  0
   -5.2394    2.8412   -1.8630 H   0  0  0  0  0  0  0  0  0  0  0  0
   -5.8938    1.9612    2.2599 H   0  0  0  0  0  0  0  0  0  0  0  0
   -4.1992    0.1390    2.1397 H   0  0  0  0  0  0  0  0  0  0  0  0
   -0.5734   -1.9742    0.3458 H   0  0  0  0  0  0  0  0  0  0  0  0
   -0.6785   -0.1531   -2.9365 H   0  0  0  0  0  0  0  0  0  0  0  0
   -0.9204   -1.3108   -5.0915 H   0  0  0  0  0  0  0  0  0  0  0  0
   -0.9634   -3.7758   -5.1725 H   0  0  0  0  0  0  0  0  0  0  0  0
   -0.7641   -5.0757   -3.0849 H   0  0  0  0  0  0  0  0  0  0  0  0
   -0.5373   -3.9137   -0.9252 H   0  0  0  0  0  0  0  0  0  0  0  0
    1.4705   -0.6121   -1.2478 H   0  0  0  0  0  0  0  0  0  0  0  0
    0.2863   -0.1973    2.2995 H   0  0  0  0  0  0  0  0  0  0  0  0
    1.5884   -0.9694    4.2328 H   0  0  0  0  0  0  0  0  0  0  0  0
    3.7275   -2.1542    3.8966 H   0  0  0  0  0  0  0  0  0  0  0  0
    4.5403   -2.5942    1.6095 H   0  0  0  0  0  0  0  0  0  0  0  0
    3.2313   -1.8335   -0.3304 H   0  0  0  0  0  0  0  0  0  0  0  0
  1  2  2  0  0  0  0
  2  3  1  0  0  0  0
  3  4  4  0  0  0  0
  4  5  4  0  0  0  0
  5  6  4  0  0  0  0
  6  7  1  0  0  0  0
  6  8  4  0  0  0  0
  3  9  4  0  0  0  0
  8  9  4  0  0  0  0
  2 10  4  0  0  0  0
 10 11  1  0  0  0  0
 11 12  1  0  0  0  0
 12 13  1  0  0  0  0
 12 14  2  0  0  0  0
 11 15  1  0  0  0  0
 15 16  4  0  0  0  0
 16 17  1  0  0  0  0
 17 18  4  0  0  0  0
 18 19  4  0  0  0  0
 19 20  4  0  0  0  0
 20 21  1  0  0  0  0
 20 22  4  0  0  0  0
 17 23  4  0  0  0  0
 22 23  4  0  0  0  0
 16 24  2  0  0  0  0
 15 25  1  0  0  0  0
 25 26  1  0  0  0  0
 26 27  4  0  0  0  0
 27 28  4  0  0  0  0
 28 29  4  0  0  0  0
 29 30  4  0  0  0  0
 26 31  4  0  0  0  0
 30 31  4  0  0  0  0
 10 32  1  0  0  0  0
 25 32  1  0  0  0  0
 32 33  1  0  0  0  0
 33 34  4  0  0  0  0
 34 35  4  0  0  0  0
 35 36  4  0  0  0  0
 36 37  4  0  0  0  0
 33 38  4  0  0  0  0
 37 38  4  0  0  0  0
  4 39  1  0  0  0  0
  5 40  1  0  0  0  0
  8 41  1  0  0  0  0
  9 42  1  0  0  0  0
 11 43  1  0  0  0  0
 13 44  1  0  0  0  0
 18 45  1  0  0  0  0
 19 46  1  0  0  0  0
 22 47  1  0  0  0  0
 23 48  1  0  0  0  0
 25 49  1  0  0  0  0
 27 50  1  0  0  0  0
 28 51  1  0  0  0  0
 29 52  1  0  0  0  0
 30 53  1  0  0  0  0
 31 54  1  0  0  0  0
 32 55  1  0  0  0  0
 34 56  1  0  0  0  0
 35 57  1  0  0  0  0
 36 58  1  0  0  0  0
 37 59  1  0  0  0  0
 38 60  1  0  0  0  0
M  END
