72

C      2.112504    0.720584   -1.917096
C      2.919060    1.479895   -2.768731
C      3.478067    2.692585   -2.338812
C      4.287715    3.468852   -3.185088
C      4.831707    4.675126   -2.742329
C      4.572517    5.121470   -1.450059
C      3.770566    4.360828   -0.596474
C      3.217330    3.144116   -1.026252
C      2.408336    2.368272   -0.178634
C      1.851756    1.151998   -0.608933
C      0.937756    0.378262    0.333240
C     -0.545781    0.600951   -0.072034
C     -1.317018    1.524309    0.857850
C     -2.029020    2.608463    0.312657
C     -2.749104    3.503186    1.123913
C     -3.451579    4.588590    0.574859
C     -4.161244    5.468783    1.393931
C     -4.180080    5.274582    2.771756
C     -3.489022    4.199151    3.332885
C     -2.768962    3.306081    2.521237
C     -2.070774    2.219443    3.066322
C     -1.355467    1.341747    2.245392
N     -1.126257   -0.740072   -0.167998
C     -2.300846   -0.945866   -0.868743
C     -2.830923   -2.316677   -0.958655
C     -3.723630   -2.836444   -0.013764
I     -4.426578   -1.738188    1.624087
C     -4.188745   -4.148137   -0.161046
C     -3.780463   -4.920936   -1.251948
C     -2.917845   -4.386954   -2.208949
C     -2.446641   -3.082678   -2.068905
O     -2.920599   -0.062466   -1.453559
C     -0.154368   -1.768989    0.174332
C     -0.540515   -2.420013    1.526112
O     -0.746056   -3.753656    1.420107
O     -0.650370   -1.878699    2.614280
N      1.122717   -1.075133    0.285285
C      2.342302   -1.661616    0.577302
C      2.477323   -3.122996    0.400273
C      2.440701   -3.613249   -0.915006
C      2.590092   -4.978167   -1.158313
C      2.790360   -5.854936   -0.093165
C      2.847596   -5.369417    1.215523
C      2.701000   -3.999760    1.469254
I      2.795985   -3.385484    3.470811
O      3.334214   -1.035471    0.932593
H      1.689788   -0.209472   -2.287326
H      3.108142    1.116688   -3.775842
H      4.499690    3.137305   -4.198681
H      5.458361    5.265345   -3.405994
H      4.996326    6.060876   -1.104546
H      3.580070    4.724618    0.410968
H      2.208963    2.717593    0.833697
H      1.148525    0.676683    1.367687
H     -0.597345    1.021151   -1.086807
H     -2.032797    2.752726   -0.767975
H     -3.452536    4.754124   -0.500814
H     -4.701876    6.302060    0.953261
H     -4.733774    5.957641    3.410009
H     -3.517370    4.061300    4.411652
H     -2.079067    2.043633    4.140404
H     -0.831382    0.514905    2.717613
H     -4.880370   -4.581035    0.559992
H     -4.151343   -5.938732   -1.363179
H     -2.625321   -4.985796   -3.068066
H     -1.792255   -2.659824   -2.828474
H     -0.098457   -2.527571   -0.610006
H     -0.975293   -4.026830    2.335053
H      2.319422   -2.929766   -1.751549
H      2.571711   -5.357331   -2.176983
H      2.915839   -6.919285   -0.282121
H      3.014635   -6.072278    2.028521
