19

C     -2.498400   -0.130928    0.925682
C     -2.385963    0.575941   -0.207614
C     -1.144086    0.832993   -1.022076
C      0.151656    0.272699   -0.477607
C      0.951157    0.947199    0.460835
C      2.134172    0.367636    0.934645
C      2.531110   -0.890877    0.484888
C      1.745809   -1.575988   -0.436734
C      0.565824   -1.001047   -0.911759
Br     0.490728    2.656688    1.151612
H     -3.460565   -0.236007    1.417882
H     -1.649746   -0.617854    1.395513
H     -3.290090    1.032676   -0.608046
H     -1.312561    0.419195   -2.025647
H     -1.041660    1.911856   -1.187301
H      2.753452    0.890187    1.659668
H      3.449773   -1.336870    0.856974
H      2.048725   -2.560202   -0.785325
H     -0.039336   -1.557298   -1.625591
