
  xtb     03172202193D
 xtb: 6.3.3 (4ae9cef)
 19 19  0     0  0            999 V2000
   -2.3423   -0.1053    0.9294 C   0  0  0  0  0  0  0  0  0  0  0  0
   -2.3217    0.6387   -0.1593 C   0  0  0  0  0  0  0  0  0  0  0  0
   -1.1443    0.8174   -1.0787 C   0  0  0  0  0  0  0  0  0  0  0  0
    0.1233    0.2359   -0.5310 C   0  0  0  0  0  0  0  0  0  0  0  0
    0.8694    0.8901    0.4439 C   0  0  0  0  0  0  0  0  0  0  0  0
    2.0266    0.3438    0.9706 C   0  0  0  0  0  0  0  0  0  0  0  0
    2.4592   -0.8926    0.5260 C   0  0  0  0  0  0  0  0  0  0  0  0
    1.7326   -1.5683   -0.4390 C   0  0  0  0  0  0  0  0  0  0  0  0
    0.5799   -1.0057   -0.9575 C   0  0  0  0  0  0  0  0  0  0  0  0
    0.3097    2.5955    1.0982 Br  0  0  0  0  0  0  0  0  0  0  0  0
   -3.2248   -0.1860    1.5398 H   0  0  0  0  0  0  0  0  0  0  0  0
   -1.4821   -0.6633    1.2624 H   0  0  0  0  0  0  0  0  0  0  0  0
   -3.2063    1.1802   -0.4657 H   0  0  0  0  0  0  0  0  0  0  0  0
   -1.3812    0.3468   -2.0379 H   0  0  0  0  0  0  0  0  0  0  0  0
   -1.0149    1.8879   -1.2664 H   0  0  0  0  0  0  0  0  0  0  0  0
    2.5808    0.8818    1.7245 H   0  0  0  0  0  0  0  0  0  0  0  0
    3.3595   -1.3240    0.9364 H   0  0  0  0  0  0  0  0  0  0  0  0
    2.0630   -2.5349   -0.7879 H   0  0  0  0  0  0  0  0  0  0  0  0
    0.0137   -1.5379   -1.7079 H   0  0  0  0  0  0  0  0  0  0  0  0
  1  2  2  0  0  0  0
  2  3  1  0  0  0  0
  3  4  1  0  0  0  0
  4  5  4  0  0  0  0
  5  6  4  0  0  0  0
  6  7  4  0  0  0  0
  7  8  4  0  0  0  0
  4  9  4  0  0  0  0
  8  9  4  0  0  0  0
  5 10  1  0  0  0  0
  1 11  1  0  0  0  0
  1 12  1  0  0  0  0
  2 13  1  0  0  0  0
  3 14  1  0  0  0  0
  3 15  1  0  0  0  0
  6 16  1  0  0  0  0
  7 17  1  0  0  0  0
  8 18  1  0  0  0  0
  9 19  1  0  0  0  0
M  END
