
  xtb     03172201573D
 xtb: 6.3.3 (4ae9cef)
 72 78  0     0  0            999 V2000
   -4.7829    0.9941    1.5705 C   0  0  0  0  0  0  0  0  0  0  0  0
   -5.0729    1.6743    0.4232 C   0  0  0  0  0  0  0  0  0  0  0  0
   -4.0907    1.8183   -0.5669 C   0  0  0  0  0  0  0  0  0  0  0  0
   -2.8550    1.2558   -0.4096 C   0  0  0  0  0  0  0  0  0  0  0  0
   -2.5219    0.5313    0.7562 C   0  0  0  0  0  0  0  0  0  0  0  0
   -3.5080    0.4250    1.7762 C   0  0  0  0  0  0  0  0  0  0  0  0
   -3.2016   -0.2371    2.9821 C   0  0  0  0  0  0  0  0  0  0  0  0
   -1.9603   -0.7672    3.1897 C   0  0  0  0  0  0  0  0  0  0  0  0
   -0.9963   -0.6955    2.1787 C   0  0  0  0  0  0  0  0  0  0  0  0
   -1.2617   -0.0889    0.9743 C   0  0  0  0  0  0  0  0  0  0  0  0
   -0.1864   -0.1390   -0.0836 C   0  0  0  0  0  0  0  0  0  0  0  0
    1.1173    0.5978    0.3408 C   0  0  0  0  0  0  0  0  0  0  0  0
    1.4394    1.7391   -0.6001 C   0  0  0  0  0  0  0  0  0  0  0  0
    2.4559    1.6359   -1.5133 C   0  0  0  0  0  0  0  0  0  0  0  0
    2.7241    2.6643   -2.4279 C   0  0  0  0  0  0  0  0  0  0  0  0
    1.9592    3.7937   -2.4327 C   0  0  0  0  0  0  0  0  0  0  0  0
    0.9131    3.9525   -1.5000 C   0  0  0  0  0  0  0  0  0  0  0  0
    0.6529    2.9235   -0.5537 C   0  0  0  0  0  0  0  0  0  0  0  0
   -0.3741    3.1370    0.3917 C   0  0  0  0  0  0  0  0  0  0  0  0
   -1.1232    4.2808    0.3771 C   0  0  0  0  0  0  0  0  0  0  0  0
   -0.8830    5.2796   -0.5765 C   0  0  0  0  0  0  0  0  0  0  0  0
    0.1214    5.1201   -1.4881 C   0  0  0  0  0  0  0  0  0  0  0  0
    2.1297   -0.4452    0.3547 N   0  0  0  0  0  0  0  0  0  0  0  0
    3.2768   -0.2990    1.0719 C   0  0  0  0  0  0  0  0  0  0  0  0
    4.2196   -1.4579    0.9751 C   0  0  0  0  0  0  0  0  0  0  0  0
    4.0246   -2.6078    1.7300 C   0  0  0  0  0  0  0  0  0  0  0  0
    4.9205   -3.6577    1.6292 C   0  0  0  0  0  0  0  0  0  0  0  0
    6.0069   -3.5711    0.7759 C   0  0  0  0  0  0  0  0  0  0  0  0
    6.1948   -2.4162    0.0392 C   0  0  0  0  0  0  0  0  0  0  0  0
    7.8539   -2.2667   -1.2571 I   0  0  0  0  0  0  0  0  0  0  0  0
    5.3186   -1.3530    0.1345 C   0  0  0  0  0  0  0  0  0  0  0  0
    3.5039    0.7025    1.7128 O   0  0  0  0  0  0  0  0  0  0  0  0
    1.6823   -1.6071   -0.3642 C   0  0  0  0  0  0  0  0  0  0  0  0
    2.2005   -1.6067   -1.8192 C   0  0  0  0  0  0  0  0  0  0  0  0
    1.2426   -1.3315   -2.6970 O   0  0  0  0  0  0  0  0  0  0  0  0
    3.3418   -1.8233   -2.1136 O   0  0  0  0  0  0  0  0  0  0  0  0
    0.2478   -1.5121   -0.3070 N   0  0  0  0  0  0  0  0  0  0  0  0
   -0.5074   -2.6387   -0.3381 C   0  0  0  0  0  0  0  0  0  0  0  0
   -1.9867   -2.4283   -0.3645 C   0  0  0  0  0  0  0  0  0  0  0  0
   -2.5716   -1.7866   -1.4485 C   0  0  0  0  0  0  0  0  0  0  0  0
   -3.9447   -1.6409   -1.4812 C   0  0  0  0  0  0  0  0  0  0  0  0
   -4.8367   -0.6775   -3.1353 I   0  0  0  0  0  0  0  0  0  0  0  0
   -4.7429   -2.1082   -0.4543 C   0  0  0  0  0  0  0  0  0  0  0  0
   -4.1529   -2.7700    0.6093 C   0  0  0  0  0  0  0  0  0  0  0  0
   -2.7826   -2.9483    0.6487 C   0  0  0  0  0  0  0  0  0  0  0  0
   -0.0000   -3.7420   -0.3632 O   0  0  0  0  0  0  0  0  0  0  0  0
   -5.5235    0.8875    2.3500 H   0  0  0  0  0  0  0  0  0  0  0  0
   -6.0490    2.1103    0.2726 H   0  0  0  0  0  0  0  0  0  0  0  0
   -4.3180    2.3755   -1.4632 H   0  0  0  0  0  0  0  0  0  0  0  0
   -2.1241    1.3945   -1.1909 H   0  0  0  0  0  0  0  0  0  0  0  0
   -3.9648   -0.3058    3.7435 H   0  0  0  0  0  0  0  0  0  0  0  0
   -1.7166   -1.2546    4.1215 H   0  0  0  0  0  0  0  0  0  0  0  0
   -0.0283   -1.1473    2.3452 H   0  0  0  0  0  0  0  0  0  0  0  0
   -0.5362    0.2837   -1.0302 H   0  0  0  0  0  0  0  0  0  0  0  0
    1.0453    0.9899    1.3620 H   0  0  0  0  0  0  0  0  0  0  0  0
    3.0806    0.7559   -1.5354 H   0  0  0  0  0  0  0  0  0  0  0  0
    3.5371    2.5450   -3.1283 H   0  0  0  0  0  0  0  0  0  0  0  0
    2.1470    4.5856   -3.1429 H   0  0  0  0  0  0  0  0  0  0  0  0
   -0.5724    2.3942    1.1472 H   0  0  0  0  0  0  0  0  0  0  0  0
   -1.9065    4.4185    1.1079 H   0  0  0  0  0  0  0  0  0  0  0  0
   -1.4867    6.1748   -0.5755 H   0  0  0  0  0  0  0  0  0  0  0  0
    0.3306    5.8898   -2.2171 H   0  0  0  0  0  0  0  0  0  0  0  0
    3.1802   -2.6778    2.4004 H   0  0  0  0  0  0  0  0  0  0  0  0
    4.7720   -4.5527    2.2139 H   0  0  0  0  0  0  0  0  0  0  0  0
    6.7005   -4.3936    0.6932 H   0  0  0  0  0  0  0  0  0  0  0  0
    5.4737   -0.4528   -0.4390 H   0  0  0  0  0  0  0  0  0  0  0  0
    2.0266   -2.5453    0.0941 H   0  0  0  0  0  0  0  0  0  0  0  0
    1.5888   -1.3523   -3.6050 H   0  0  0  0  0  0  0  0  0  0  0  0
   -1.9560   -1.4230   -2.2574 H   0  0  0  0  0  0  0  0  0  0  0  0
   -5.8125   -1.9708   -0.4857 H   0  0  0  0  0  0  0  0  0  0  0  0
   -4.7713   -3.1535    1.4062 H   0  0  0  0  0  0  0  0  0  0  0  0
   -2.3201   -3.4779    1.4669 H   0  0  0  0  0  0  0  0  0  0  0  0
  1  2  2  0  0  0  0
  2  3  4  0  0  0  0
  3  4  2  0  0  0  0
  4  5  4  0  0  0  0
  1  6  4  0  0  0  0
  5  6  4  0  0  0  0
  6  7  4  0  0  0  0
  7  8  2  0  0  0  0
  8  9  4  0  0  0  0
  5 10  4  0  0  0  0
  9 10  2  0  0  0  0
 10 11  1  0  0  0  0
 11 12  1  0  0  0  0
 12 13  1  0  0  0  0
 13 14  2  0  0  0  0
 14 15  4  0  0  0  0
 15 16  2  0  0  0  0
 16 17  4  0  0  0  0
 13 18  4  0  0  0  0
 17 18  4  0  0  0  0
 18 19  4  0  0  0  0
 19 20  2  0  0  0  0
 20 21  4  0  0  0  0
 17 22  4  0  0  0  0
 21 22  2  0  0  0  0
 12 23  1  0  0  0  0
 23 24  1  0  0  0  0
 24 25  1  0  0  0  0
 25 26  4  0  0  0  0
 26 27  4  0  0  0  0
 27 28  4  0  0  0  0
 28 29  4  0  0  0  0
 29 30  1  0  0  0  0
 25 31  4  0  0  0  0
 29 31  4  0  0  0  0
 24 32  2  0  0  0  0
 23 33  1  0  0  0  0
 33 34  1  0  0  0  0
 34 35  1  0  0  0  0
 34 36  2  0  0  0  0
 11 37  1  0  0  0  0
 33 37  1  0  0  0  0
 37 38  4  0  0  0  0
 38 39  1  0  0  0  0
 39 40  4  0  0  0  0
 40 41  4  0  0  0  0
 41 42  1  0  0  0  0
 41 43  4  0  0  0  0
 43 44  4  0  0  0  0
 39 45  4  0  0  0  0
 44 45  4  0  0  0  0
 38 46  2  0  0  0  0
  1 47  1  0  0  0  0
  2 48  1  0  0  0  0
  3 49  1  0  0  0  0
  4 50  1  0  0  0  0
  7 51  1  0  0  0  0
  8 52  1  0  0  0  0
  9 53  1  0  0  0  0
 11 54  1  0  0  0  0
 12 55  1  0  0  0  0
 14 56  1  0  0  0  0
 15 57  1  0  0  0  0
 16 58  1  0  0  0  0
 19 59  1  0  0  0  0
 20 60  1  0  0  0  0
 21 61  1  0  0  0  0
 22 62  1  0  0  0  0
 26 63  1  0  0  0  0
 27 64  1  0  0  0  0
 28 65  1  0  0  0  0
 31 66  1  0  0  0  0
 33 67  1  0  0  0  0
 35 68  1  0  0  0  0
 40 69  1  0  0  0  0
 43 70  1  0  0  0  0
 44 71  1  0  0  0  0
 45 72  1  0  0  0  0
M  END
