
  xtb     03172200243D
 xtb: 6.3.3 (4ae9cef)
 72 76  0     0  0            999 V2000
    2.1617   -0.7150    1.2903 C   0  0  0  0  0  0  0  0  0  0  0  0
    1.8993   -2.1824    1.0749 C   0  0  0  0  0  0  0  0  0  0  0  0
    0.5871   -2.4793    1.2012 F   0  0  0  0  0  0  0  0  0  0  0  0
    2.5379   -2.9588    1.9527 F   0  0  0  0  0  0  0  0  0  0  0  0
    2.2521   -2.6332   -0.1426 F   0  0  0  0  0  0  0  0  0  0  0  0
    3.0196   -0.3468    2.3218 C   0  0  0  0  0  0  0  0  0  0  0  0
    3.2269    0.9878    2.6143 C   0  0  0  0  0  0  0  0  0  0  0  0
    2.5561    1.9617    1.8939 C   0  0  0  0  0  0  0  0  0  0  0  0
    1.7176    1.5989    0.8573 C   0  0  0  0  0  0  0  0  0  0  0  0
    1.5271    0.2618    0.5195 C   0  0  0  0  0  0  0  0  0  0  0  0
    0.6291   -0.0548   -0.6552 C   0  0  0  0  0  0  0  0  0  0  0  0
   -0.8516    0.2600   -0.3012 C   0  0  0  0  0  0  0  0  0  0  0  0
   -1.7012   -0.9520    0.0168 C   0  0  0  0  0  0  0  0  0  0  0  0
   -2.1930   -1.8787   -0.9086 C   0  0  0  0  0  0  0  0  0  0  0  0
   -1.9396   -1.7885   -2.3928 C   0  0  0  0  0  0  0  0  0  0  0  0
   -2.6328   -0.7912   -2.9742 F   0  0  0  0  0  0  0  0  0  0  0  0
   -2.2992   -2.9032   -3.0412 F   0  0  0  0  0  0  0  0  0  0  0  0
   -0.6503   -1.5887   -2.7173 F   0  0  0  0  0  0  0  0  0  0  0  0
   -3.0031   -2.9277   -0.4824 C   0  0  0  0  0  0  0  0  0  0  0  0
   -3.3212   -3.0833    0.8523 C   0  0  0  0  0  0  0  0  0  0  0  0
   -2.8205   -2.1888    1.7802 C   0  0  0  0  0  0  0  0  0  0  0  0
   -2.0250   -1.1425    1.3579 C   0  0  0  0  0  0  0  0  0  0  0  0
   -1.3304    1.0715   -1.4044 N   0  0  0  0  0  0  0  0  0  0  0  0
   -2.4918    1.7794   -1.3965 C   0  0  0  0  0  0  0  0  0  0  0  0
   -3.4402    1.3784   -0.3035 C   0  0  0  0  0  0  0  0  0  0  0  0
   -4.4613    0.4793   -0.5839 C   0  0  0  0  0  0  0  0  0  0  0  0
   -5.3169    0.0667    0.4203 C   0  0  0  0  0  0  0  0  0  0  0  0
   -5.1597    0.5751    1.7022 C   0  0  0  0  0  0  0  0  0  0  0  0
   -6.0233    0.0718    2.8238 C   0  0  0  0  0  0  0  0  0  0  0  0
   -6.3276    1.0225    3.7179 F   0  0  0  0  0  0  0  0  0  0  0  0
   -5.3958   -0.9040    3.5198 F   0  0  0  0  0  0  0  0  0  0  0  0
   -7.1800   -0.4561    2.4083 F   0  0  0  0  0  0  0  0  0  0  0  0
   -4.1767    1.5165    1.9774 C   0  0  0  0  0  0  0  0  0  0  0  0
   -3.3200    1.9200    0.9701 C   0  0  0  0  0  0  0  0  0  0  0  0
   -2.7378    2.6333   -2.2143 O   0  0  0  0  0  0  0  0  0  0  0  0
   -0.3017    1.3530   -2.3830 C   0  0  0  0  0  0  0  0  0  0  0  0
   -0.1900    2.8660   -2.6843 C   0  0  0  0  0  0  0  0  0  0  0  0
    0.0443    3.5513   -1.5545 O   0  0  0  0  0  0  0  0  0  0  0  0
   -0.3302    3.3573   -3.7580 O   0  0  0  0  0  0  0  0  0  0  0  0
    0.9041    0.8208   -1.7840 N   0  0  0  0  0  0  0  0  0  0  0  0
    2.1080    1.3061   -2.1818 C   0  0  0  0  0  0  0  0  0  0  0  0
    3.3158    0.6215   -1.6290 C   0  0  0  0  0  0  0  0  0  0  0  0
    3.5365   -0.7287   -1.8655 C   0  0  0  0  0  0  0  0  0  0  0  0
    4.6660   -1.3452   -1.3559 C   0  0  0  0  0  0  0  0  0  0  0  0
    5.5703   -0.6030   -0.6114 C   0  0  0  0  0  0  0  0  0  0  0  0
    6.7533   -1.2595    0.0419 C   0  0  0  0  0  0  0  0  0  0  0  0
    6.9809   -2.5047   -0.3853 F   0  0  0  0  0  0  0  0  0  0  0  0
    7.8922   -0.5730   -0.1388 F   0  0  0  0  0  0  0  0  0  0  0  0
    6.5816   -1.3425    1.3804 F   0  0  0  0  0  0  0  0  0  0  0  0
    5.3843    0.7614   -0.4185 C   0  0  0  0  0  0  0  0  0  0  0  0
    4.2655    1.3739   -0.9451 C   0  0  0  0  0  0  0  0  0  0  0  0
    2.1885    2.2387   -2.9529 O   0  0  0  0  0  0  0  0  0  0  0  0
    3.5235   -1.1087    2.8950 H   0  0  0  0  0  0  0  0  0  0  0  0
    3.9001    1.2611    3.4108 H   0  0  0  0  0  0  0  0  0  0  0  0
    2.6909    3.0049    2.1343 H   0  0  0  0  0  0  0  0  0  0  0  0
    1.2132    2.3616    0.2816 H   0  0  0  0  0  0  0  0  0  0  0  0
    0.7346   -1.0997   -0.9568 H   0  0  0  0  0  0  0  0  0  0  0  0
   -0.8502    0.8796    0.6073 H   0  0  0  0  0  0  0  0  0  0  0  0
   -3.3840   -3.6304   -1.2069 H   0  0  0  0  0  0  0  0  0  0  0  0
   -3.9529   -3.9001    1.1624 H   0  0  0  0  0  0  0  0  0  0  0  0
   -3.0567   -2.2970    2.8267 H   0  0  0  0  0  0  0  0  0  0  0  0
   -1.6409   -0.4469    2.0887 H   0  0  0  0  0  0  0  0  0  0  0  0
   -4.5794    0.1035   -1.5875 H   0  0  0  0  0  0  0  0  0  0  0  0
   -6.1033   -0.6418    0.2124 H   0  0  0  0  0  0  0  0  0  0  0  0
   -4.0873    1.9266    2.9717 H   0  0  0  0  0  0  0  0  0  0  0  0
   -2.5599    2.6594    1.1737 H   0  0  0  0  0  0  0  0  0  0  0  0
   -0.5199    0.8610   -3.3443 H   0  0  0  0  0  0  0  0  0  0  0  0
    0.0960    4.4971   -1.7650 H   0  0  0  0  0  0  0  0  0  0  0  0
    2.8296   -1.3009   -2.4452 H   0  0  0  0  0  0  0  0  0  0  0  0
    4.8344   -2.3968   -1.5260 H   0  0  0  0  0  0  0  0  0  0  0  0
    6.1153    1.3307    0.1345 H   0  0  0  0  0  0  0  0  0  0  0  0
    4.1121    2.4340   -0.8199 H   0  0  0  0  0  0  0  0  0  0  0  0
  1  2  1  0  0  0  0
  2  3  1  0  0  0  0
  2  4  1  0  0  0  0
  2  5  1  0  0  0  0
  1  6  4  0  0  0  0
  6  7  4  0  0  0  0
  7  8  4  0  0  0  0
  8  9  4  0  0  0  0
  1 10  4  0  0  0  0
  9 10  4  0  0  0  0
 10 11  1  0  0  0  0
 11 12  1  0  0  0  0
 12 13  1  0  0  0  0
 13 14  4  0  0  0  0
 14 15  1  0  0  0  0
 15 16  1  0  0  0  0
 15 17  1  0  0  0  0
 15 18  1  0  0  0  0
 14 19  4  0  0  0  0
 19 20  4  0  0  0  0
 20 21  4  0  0  0  0
 13 22  4  0  0  0  0
 21 22  4  0  0  0  0
 12 23  1  0  0  0  0
 23 24  4  0  0  0  0
 24 25  1  0  0  0  0
 25 26  4  0  0  0  0
 26 27  4  0  0  0  0
 27 28  4  0  0  0  0
 28 29  1  0  0  0  0
 29 30  1  0  0  0  0
 29 31  1  0  0  0  0
 29 32  1  0  0  0  0
 28 33  4  0  0  0  0
 25 34  4  0  0  0  0
 33 34  4  0  0  0  0
 24 35  2  0  0  0  0
 23 36  1  0  0  0  0
 36 37  1  0  0  0  0
 37 38  1  0  0  0  0
 37 39  2  0  0  0  0
 11 40  1  0  0  0  0
 36 40  1  0  0  0  0
 40 41  4  0  0  0  0
 41 42  1  0  0  0  0
 42 43  4  0  0  0  0
 43 44  4  0  0  0  0
 44 45  4  0  0  0  0
 45 46  1  0  0  0  0
 46 47  1  0  0  0  0
 46 48  1  0  0  0  0
 46 49  1  0  0  0  0
 45 50  4  0  0  0  0
 42 51  4  0  0  0  0
 50 51  4  0  0  0  0
 41 52  2  0  0  0  0
  6 53  1  0  0  0  0
  7 54  1  0  0  0  0
  8 55  1  0  0  0  0
  9 56  1  0  0  0  0
 11 57  1  0  0  0  0
 12 58  1  0  0  0  0
 19 59  1  0  0  0  0
 20 60  1  0  0  0  0
 21 61  1  0  0  0  0
 22 62  1  0  0  0  0
 26 63  1  0  0  0  0
 27 64  1  0  0  0  0
 33 65  1  0  0  0  0
 34 66  1  0  0  0  0
 36 67  1  0  0  0  0
 38 68  1  0  0  0  0
 43 69  1  0  0  0  0
 44 70  1  0  0  0  0
 50 71  1  0  0  0  0
 51 72  1  0  0  0  0
M  END
