68

C     -2.743532    1.230102    1.428025
O     -1.869921    1.421699    2.473714
C     -2.448731    1.656248    3.751039
C     -4.077135    1.666719    1.438090
C     -4.896861    1.459844    0.326167
C     -4.385454    0.834173   -0.802914
C     -3.057170    0.400244   -0.823927
C     -2.218449    0.575195    0.288767
C     -0.782312    0.071554    0.296064
C     -0.335308   -1.137496   -0.585539
C     -0.919071   -2.460784   -0.102220
C     -0.564002   -2.999758    1.153333
C     -1.096961   -4.209930    1.593532
C     -1.978519   -4.912339    0.781551
C     -2.346883   -4.399799   -0.464891
C     -1.843510   -3.167313   -0.905084
O     -2.200037   -2.577489   -2.089775
C     -3.254444   -3.186071   -2.829327
N      1.136115   -1.016679   -0.481885
C      2.011214   -2.058543   -0.749387
C      3.368135   -1.939990   -0.252221
C      3.762229   -1.658291    1.042301
O      5.117750   -1.619708    1.137610
C      5.614989   -1.931106   -0.091274
C      7.086441   -1.933331   -0.224498
C      4.578417   -2.174238   -0.966279
O      1.687611   -3.029300   -1.426536
C      1.516485    0.349431   -0.095700
C      2.549679    1.024678   -1.076694
O      2.535520    0.489780   -2.327931
O      3.223443    2.012929   -0.816808
N      0.256296    1.095370    0.067062
C      0.003187    1.941204   -1.020199
C      0.250328    3.341504   -0.748318
C      0.609726    4.267211   -1.703884
O      0.834770    5.481293   -1.143314
C      0.589283    5.355360    0.190694
C      0.775601    6.573069    0.998210
C      0.222057    4.058873    0.483904
O     -0.323771    1.517620   -2.123927
H     -1.656073    1.554948    4.494841
H     -2.849446    2.673419    3.819520
H     -3.207786    0.905712    3.989909
H     -4.506365    2.181818    2.289977
H     -5.932665    1.796560    0.341877
H     -5.017547    0.689498   -1.674307
H     -2.685994   -0.063312   -1.734318
H     -0.604991   -0.241020    1.336652
H     -0.544430   -0.968155   -1.645836
H      0.147630   -2.488091    1.796272
H     -0.813403   -4.615600    2.562237
H     -2.381631   -5.865876    1.113751
H     -3.031512   -4.989261   -1.068956
H     -2.983146   -4.198797   -3.156400
H     -4.184850   -3.199914   -2.249560
H     -3.449925   -2.602175   -3.731822
H      3.240191   -1.455880    1.970184
H      7.556635   -2.425864    0.630120
H      7.398420   -2.461611   -1.129997
H      7.466049   -0.908436   -0.275383
H      4.677082   -2.458315   -2.005582
H      1.980075    0.302464    0.895634
H      1.788848   -0.133633   -2.477509
H      0.789711    4.208977   -2.771311
H      0.277269    6.483535    1.968281
H      0.347800    7.437637    0.481876
H      1.838975    6.759944    1.174106
H     -0.046129    3.669491    1.458218
