66

C     -2.540038    0.187790    1.138073
C     -3.834036    0.490265    1.569593
C     -4.629475    1.405600    0.867162
C     -5.932662    1.718505    1.287060
C     -6.714819    2.624419    0.568996
C     -6.204869    3.227103   -0.576929
C     -4.910908    2.926704   -1.005484
C     -4.109966    2.020153   -0.292678
C     -2.805110    1.708202   -0.711880
C     -2.001275    0.800793   -0.001314
C     -0.595462    0.488950   -0.503088
C      0.472433    0.536897    0.644419
C      1.646094    1.478948    0.364044
C      2.964947    1.162194    0.733463
C      4.039704    2.039747    0.496981
C      5.356350    1.698599    0.848151
C      6.412313    2.578193    0.603198
C      6.165361    3.811161    0.007486
C      4.861906    4.167829   -0.340857
C      3.790382    3.291995   -0.100649
C      2.473406    3.638468   -0.425455
C      1.418332    2.752969   -0.181702
N      0.851685   -0.879572    0.793807
C      1.113259   -1.422011    2.036539
C      1.266471   -2.868063    2.122181
C      2.385484   -3.544552    1.669372
S      2.276223   -5.238585    1.892645
C      0.761628   -5.091893    2.670739
C      0.356767   -3.780961    2.736213
Br    -1.263921   -3.238870    3.546692
O      1.178482   -0.732328    3.049257
C      0.564938   -1.613303   -0.431226
C      1.813737   -1.638680   -1.374092
O      3.004542   -1.569752   -0.742044
O      1.804398   -1.784383   -2.587822
N     -0.516960   -0.868159   -1.043739
C     -1.205091   -1.238664   -2.184328
C     -1.249706   -2.659934   -2.509660
C     -0.742299   -3.150585   -3.701313
S     -0.896905   -4.848065   -3.845829
C     -1.724265   -4.951712   -2.353867
C     -1.855600   -3.717176   -1.765350
Br    -2.794462   -3.450620   -0.145941
O     -1.756206   -0.415626   -2.909994
H     -1.964395   -0.536292    1.708264
H     -4.218748   -0.001353    2.460635
H     -6.349700    1.254062    2.177701
H     -7.722780    2.855720    0.903270
H     -6.813487    3.928975   -1.140662
H     -4.531867    3.403913   -1.906378
H     -2.417794    2.165256   -1.621877
H     -0.345904    1.167906   -1.326363
H      0.041427    0.892875    1.588764
H      3.177201    0.215936    1.226001
H      5.568424    0.742119    1.320670
H      7.425636    2.301665    0.882361
H      6.985530    4.499182   -0.180970
H      4.686770    5.139011   -0.798138
H      2.253420    4.610936   -0.861084
H      0.410771    3.092655   -0.415715
H      3.275730   -3.128317    1.218302
H      0.254149   -5.969790    3.047334
H      0.275487   -2.646157   -0.233749
H      3.659419   -1.548920   -1.473632
H     -0.256349   -2.584857   -4.486566
H     -2.087749   -5.906514   -1.998998
