60

C     -3.228498    1.388923    0.454895
C     -3.363076    1.096598    1.937146
F     -4.608367    1.344781    2.434733
F     -2.505869    1.813161    2.711671
F     -3.121027   -0.214595    2.222077
C     -4.322521    1.975820   -0.215700
C     -4.272596    2.249048   -1.583101
C     -3.128232    1.942923   -2.306149
C     -2.028251    1.372508   -1.661391
C     -2.052241    1.086624   -0.279012
C     -0.817959    0.470682    0.382952
C     -0.542113   -0.970299   -0.139429
C     -0.931970   -2.051611    0.866270
C     -2.001064   -2.950198    0.627662
C     -2.834828   -2.909572   -0.637827
F     -2.121417   -3.198788   -1.757579
F     -3.887872   -3.774415   -0.631925
F     -3.383553   -1.679808   -0.853019
C     -2.312614   -3.921820    1.600138
C     -1.596340   -4.008988    2.790467
C     -0.555189   -3.127797    3.030745
C     -0.228363   -2.161475    2.082277
N      0.881472   -0.973619   -0.495179
C      1.429130   -2.049142   -1.171619
C      2.823530   -1.975273   -1.560120
C      3.780800   -2.873460   -1.132491
O      4.992568   -2.575912   -1.663419
C      4.814147   -1.507183   -2.483324
Br     6.194632   -0.698584   -3.511957
C      3.496895   -1.108288   -2.468045
O      0.786936   -3.064880   -1.412234
C      1.488764    0.340841   -0.317977
C      2.580792    0.258495    0.780785
O      3.796029    0.629408    0.320070
O      2.441580   -0.089830    1.941144
N      0.406304    1.225284    0.081173
C      0.515544    2.551490    0.469254
C      1.687086    3.344466    0.127273
C      2.557912    3.251852   -0.940234
O      3.507524    4.218378   -0.891084
C      3.224322    4.996156    0.185055
Br     4.213151    6.538956    0.682702
C      2.115102    4.510443    0.832942
O     -0.375105    3.080225    1.132698
H     -5.232226    2.222629    0.332929
H     -5.127099    2.699456   -2.081147
H     -3.085554    2.152002   -3.373696
H     -1.144296    1.152294   -2.258032
H     -0.907471    0.484691    1.471102
H     -1.058554   -1.144388   -1.087864
H     -3.128181   -4.621575    1.432429
H     -1.850018   -4.761917    3.526565
H      0.005709   -3.188050    3.961295
H      0.588657   -1.485686    2.316143
H      3.751110   -3.738735   -0.478106
H      3.075734   -0.305284   -3.054741
H      1.900254    0.677685   -1.266574
H      4.411938    0.509780    1.077267
H      2.645432    2.605671   -1.801629
H      1.639410    4.939900    1.702741
