
  xtb     03162223423D
 xtb: 6.3.3 (4ae9cef)
 60 64  0     0  0            999 V2000
   -3.2727    1.2760    0.5702 C   0  0  0  0  0  0  0  0  0  0  0  0
   -3.3155    0.8264    2.0048 C   0  0  0  0  0  0  0  0  0  0  0  0
   -4.5019    1.0390    2.5848 F   0  0  0  0  0  0  0  0  0  0  0  0
   -2.4073    1.4308    2.7895 F   0  0  0  0  0  0  0  0  0  0  0  0
   -3.0791   -0.4999    2.1328 F   0  0  0  0  0  0  0  0  0  0  0  0
   -4.4127    1.8480    0.0194 C   0  0  0  0  0  0  0  0  0  0  0  0
   -4.4224    2.2508   -1.3022 C   0  0  0  0  0  0  0  0  0  0  0  0
   -3.2927    2.0758   -2.0816 C   0  0  0  0  0  0  0  0  0  0  0  0
   -2.1602    1.5050   -1.5347 C   0  0  0  0  0  0  0  0  0  0  0  0
   -2.1260    1.1041   -0.2043 C   0  0  0  0  0  0  0  0  0  0  0  0
   -0.8612    0.4758    0.3243 C   0  0  0  0  0  0  0  0  0  0  0  0
   -0.6073   -0.9207   -0.2812 C   0  0  0  0  0  0  0  0  0  0  0  0
   -0.9746   -2.0283    0.6751 C   0  0  0  0  0  0  0  0  0  0  0  0
   -2.0610   -2.8774    0.4639 C   0  0  0  0  0  0  0  0  0  0  0  0
   -2.9448   -2.7225   -0.7417 C   0  0  0  0  0  0  0  0  0  0  0  0
   -2.2981   -2.8705   -1.9130 F   0  0  0  0  0  0  0  0  0  0  0  0
   -3.9569   -3.5950   -0.7697 F   0  0  0  0  0  0  0  0  0  0  0  0
   -3.5185   -1.4963   -0.8045 F   0  0  0  0  0  0  0  0  0  0  0  0
   -2.3643   -3.8717    1.3856 C   0  0  0  0  0  0  0  0  0  0  0  0
   -1.5929   -4.0268    2.5212 C   0  0  0  0  0  0  0  0  0  0  0  0
   -0.5202   -3.1819    2.7437 C   0  0  0  0  0  0  0  0  0  0  0  0
   -0.2180   -2.1907    1.8298 C   0  0  0  0  0  0  0  0  0  0  0  0
    0.8228   -0.9128   -0.5762 N   0  0  0  0  0  0  0  0  0  0  0  0
    1.5071   -2.0590   -0.8366 C   0  0  0  0  0  0  0  0  0  0  0  0
    2.9621   -1.8460   -1.0722 C   0  0  0  0  0  0  0  0  0  0  0  0
    3.9841   -2.2840   -0.2799 C   0  0  0  0  0  0  0  0  0  0  0  0
    5.1717   -1.9316   -0.7989 O   0  0  0  0  0  0  0  0  0  0  0  0
    4.9140   -1.2843   -1.9446 C   0  0  0  0  0  0  0  0  0  0  0  0
    6.3666   -0.6444   -2.9148 Br  0  0  0  0  0  0  0  0  0  0  0  0
    3.5759   -1.1911   -2.1776 C   0  0  0  0  0  0  0  0  0  0  0  0
    0.9831   -3.1462   -0.8713 O   0  0  0  0  0  0  0  0  0  0  0  0
    1.4111    0.3990   -0.4709 C   0  0  0  0  0  0  0  0  0  0  0  0
    2.5101    0.4117    0.6176 C   0  0  0  0  0  0  0  0  0  0  0  0
    3.6397    0.9550    0.1729 O   0  0  0  0  0  0  0  0  0  0  0  0
    2.3545   -0.0017    1.7299 O   0  0  0  0  0  0  0  0  0  0  0  0
    0.3080    1.2466   -0.0912 N   0  0  0  0  0  0  0  0  0  0  0  0
    0.3720    2.5860    0.1550 C   0  0  0  0  0  0  0  0  0  0  0  0
    1.6630    3.2255   -0.2157 C   0  0  0  0  0  0  0  0  0  0  0  0
    2.2029    3.4211   -1.4553 C   0  0  0  0  0  0  0  0  0  0  0  0
    3.3653    4.0865   -1.3665 O   0  0  0  0  0  0  0  0  0  0  0  0
    3.5751    4.3221   -0.0645 C   0  0  0  0  0  0  0  0  0  0  0  0
    5.1477    5.1996    0.4047 Br  0  0  0  0  0  0  0  0  0  0  0  0
    2.5648    3.8293    0.7042 C   0  0  0  0  0  0  0  0  0  0  0  0
   -0.5538    3.2025    0.6254 O   0  0  0  0  0  0  0  0  0  0  0  0
   -5.2925    1.9760    0.6301 H   0  0  0  0  0  0  0  0  0  0  0  0
   -5.3110    2.6963   -1.7206 H   0  0  0  0  0  0  0  0  0  0  0  0
   -3.2934    2.3819   -3.1166 H   0  0  0  0  0  0  0  0  0  0  0  0
   -1.2789    1.3722   -2.1451 H   0  0  0  0  0  0  0  0  0  0  0  0
   -0.8705    0.4138    1.4171 H   0  0  0  0  0  0  0  0  0  0  0  0
   -1.1466   -1.0194   -1.2288 H   0  0  0  0  0  0  0  0  0  0  0  0
   -3.2067   -4.5221    1.2099 H   0  0  0  0  0  0  0  0  0  0  0  0
   -1.8336   -4.8034    3.2302 H   0  0  0  0  0  0  0  0  0  0  0  0
    0.0832   -3.2908    3.6318 H   0  0  0  0  0  0  0  0  0  0  0  0
    0.6227   -1.5374    2.0100 H   0  0  0  0  0  0  0  0  0  0  0  0
    3.9836   -2.8226    0.6460 H   0  0  0  0  0  0  0  0  0  0  0  0
    3.1016   -0.7502   -3.0292 H   0  0  0  0  0  0  0  0  0  0  0  0
    1.8611    0.7327   -1.4179 H   0  0  0  0  0  0  0  0  0  0  0  0
    4.3201    0.9819    0.8685 H   0  0  0  0  0  0  0  0  0  0  0  0
    1.8569    3.1736   -2.4388 H   0  0  0  0  0  0  0  0  0  0  0  0
    2.4646    3.8837    1.7679 H   0  0  0  0  0  0  0  0  0  0  0  0
  1  2  1  0  0  0  0
  2  3  1  0  0  0  0
  2  4  1  0  0  0  0
  2  5  1  0  0  0  0
  1  6  4  0  0  0  0
  6  7  4  0  0  0  0
  7  8  4  0  0  0  0
  8  9  4  0  0  0  0
  1 10  4  0  0  0  0
  9 10  4  0  0  0  0
 10 11  1  0  0  0  0
 11 12  1  0  0  0  0
 12 13  1  0  0  0  0
 13 14  4  0  0  0  0
 14 15  1  0  0  0  0
 15 16  1  0  0  0  0
 15 17  1  0  0  0  0
 15 18  1  0  0  0  0
 14 19  4  0  0  0  0
 19 20  4  0  0  0  0
 20 21  4  0  0  0  0
 13 22  4  0  0  0  0
 21 22  4  0  0  0  0
 12 23  1  0  0  0  0
 23 24  4  0  0  0  0
 24 25  1  0  0  0  0
 25 26  2  0  0  0  0
 26 27  1  0  0  0  0
 27 28  1  0  0  0  0
 28 29  1  0  0  0  0
 25 30  4  0  0  0  0
 28 30  2  0  0  0  0
 24 31  2  0  0  0  0
 23 32  1  0  0  0  0
 32 33  1  0  0  0  0
 33 34  1  0  0  0  0
 33 35  2  0  0  0  0
 11 36  1  0  0  0  0
 32 36  1  0  0  0  0
 36 37  1  0  0  0  0
 37 38  1  0  0  0  0
 38 39  2  0  0  0  0
 39 40  1  0  0  0  0
 40 41  1  0  0  0  0
 41 42  1  0  0  0  0
 38 43  4  0  0  0  0
 41 43  2  0  0  0  0
 37 44  2  0  0  0  0
  6 45  1  0  0  0  0
  7 46  1  0  0  0  0
  8 47  1  0  0  0  0
  9 48  1  0  0  0  0
 11 49  1  0  0  0  0
 12 50  1  0  0  0  0
 19 51  1  0  0  0  0
 20 52  1  0  0  0  0
 21 53  1  0  0  0  0
 22 54  1  0  0  0  0
 26 55  1  0  0  0  0
 30 56  1  0  0  0  0
 32 57  1  0  0  0  0
 34 58  1  0  0  0  0
 39 59  1  0  0  0  0
 43 60  1  0  0  0  0
M  END
