66

C     -1.889022    2.069558    0.450718
C     -2.627674    2.957909    1.236084
C     -2.917814    2.662947    2.574302
C     -3.667319    3.541485    3.374719
C     -3.947738    3.228970    4.705586
C     -3.481719    2.036914    5.251949
C     -2.734643    1.155200    4.469927
C     -2.445515    1.453567    3.127810
C     -1.701679    0.570841    2.326095
C     -1.422841    0.858627    0.980252
C     -0.612351   -0.072675    0.100775
C      0.912054   -0.033229    0.410288
C      1.671713    0.886811   -0.526197
C      1.842201    0.566140   -1.885091
C      2.557392    1.407425   -2.752090
C      2.744374    1.074361   -4.103610
C      3.462376    1.916826   -4.953291
C      3.999987    3.102159   -4.462891
C      3.819633    3.449157   -3.123166
C      3.103374    2.610463   -2.254031
C      2.918049    2.938523   -0.902285
C      2.210026    2.087384   -0.049389
N      1.304877   -1.427691    0.237283
C      2.572460   -1.880943    0.507950
C      3.084970   -2.909007   -0.373426
C      4.272771   -3.585076   -0.171289
O      4.495576   -4.486250   -1.160089
C      3.450045   -4.392753   -2.023110
Br     3.261053   -5.432533   -3.602366
C      2.557188   -3.437656   -1.589625
O      3.165651   -1.474008    1.504055
C      0.180940   -2.265591    0.593640
C     -0.004286   -2.608673    2.113100
O      0.972704   -2.209686    2.961448
O     -1.002194   -3.173027    2.547398
N     -1.000486   -1.491817    0.229478
C     -1.696944   -2.003431   -0.859557
C     -3.144285   -1.945444   -0.770145
C     -3.911381   -1.677817    0.346429
O     -5.235060   -1.756527    0.053471
C     -5.334010   -2.105145   -1.255785
Br    -6.979837   -2.394112   -2.168508
C     -4.082126   -2.221173   -1.812912
O     -1.121187   -2.467485   -1.840966
H     -1.685492    2.340219   -0.583585
H     -2.980778    3.886515    0.791423
H     -4.041753    4.476523    2.962343
H     -4.528840    3.914006    5.316656
H     -3.702499    1.787443    6.286426
H     -2.384765    0.225869    4.918005
H     -1.353560   -0.355936    2.775449
H     -0.788063    0.206945   -0.949620
H      1.112145    0.238930    1.454936
H      1.417766   -0.356935   -2.276966
H      2.336503    0.149061   -4.504231
H      3.600633    1.647124   -5.996204
H      4.563265    3.758075   -5.120085
H      4.246571    4.382125   -2.759785
H      3.329165    3.861877   -0.499686
H      2.089338    2.376098    0.993324
H      5.032308   -3.545129    0.602099
H      1.639891   -3.161494   -2.091634
H      0.245949   -3.226758    0.070619
H      1.776246   -1.775020    2.594475
H     -3.684807   -1.441401    1.377242
H     -3.838527   -2.511658   -2.824142
