
  xtb     03162223323D
 xtb: 6.3.3 (4ae9cef)
 72 78  0     0  0            999 V2000
    2.0956   -2.0965    4.2155 C   0  0  0  0  0  0  0  0  0  0  0  0
    1.5239   -0.9445    4.6732 C   0  0  0  0  0  0  0  0  0  0  0  0
    0.9510   -0.0482    3.7616 C   0  0  0  0  0  0  0  0  0  0  0  0
    0.9582   -0.3164    2.4213 C   0  0  0  0  0  0  0  0  0  0  0  0
    1.5476   -1.4912    1.9048 C   0  0  0  0  0  0  0  0  0  0  0  0
    2.1256   -2.3992    2.8378 C   0  0  0  0  0  0  0  0  0  0  0  0
    2.7222   -3.5922    2.3827 C   0  0  0  0  0  0  0  0  0  0  0  0
    2.7556   -3.8836    1.0504 C   0  0  0  0  0  0  0  0  0  0  0  0
    2.1994   -2.9903    0.1280 C   0  0  0  0  0  0  0  0  0  0  0  0
    1.6056   -1.8162    0.5217 C   0  0  0  0  0  0  0  0  0  0  0  0
    1.0154   -0.9571   -0.5738 C   0  0  0  0  0  0  0  0  0  0  0  0
   -0.5299   -1.0330   -0.6290 C   0  0  0  0  0  0  0  0  0  0  0  0
   -1.0873   -1.4908   -1.9618 C   0  0  0  0  0  0  0  0  0  0  0  0
   -0.4757   -1.1016   -3.1289 C   0  0  0  0  0  0  0  0  0  0  0  0
   -0.9468   -1.5084   -4.3838 C   0  0  0  0  0  0  0  0  0  0  0  0
   -2.0309   -2.3312   -4.4707 C   0  0  0  0  0  0  0  0  0  0  0  0
   -2.7021   -2.7504   -3.3046 C   0  0  0  0  0  0  0  0  0  0  0  0
   -2.2509   -2.3102   -2.0274 C   0  0  0  0  0  0  0  0  0  0  0  0
   -2.9945   -2.7157   -0.8959 C   0  0  0  0  0  0  0  0  0  0  0  0
   -4.0861   -3.5302   -1.0194 C   0  0  0  0  0  0  0  0  0  0  0  0
   -4.5037   -3.9892   -2.2763 C   0  0  0  0  0  0  0  0  0  0  0  0
   -3.8274   -3.5969   -3.3952 C   0  0  0  0  0  0  0  0  0  0  0  0
   -0.9685    0.3302   -0.3176 N   0  0  0  0  0  0  0  0  0  0  0  0
   -1.9075    0.5280    0.6596 C   0  0  0  0  0  0  0  0  0  0  0  0
   -2.2066    1.9151    1.0448 C   0  0  0  0  0  0  0  0  0  0  0  0
   -2.5502    2.3340    2.3077 C   0  0  0  0  0  0  0  0  0  0  0  0
   -2.6027    1.4744    3.5231 C   0  0  0  0  0  0  0  0  0  0  0  0
   -2.8450    3.7196    2.3458 C   0  0  0  0  0  0  0  0  0  0  0  0
   -2.7535    4.3199    1.1338 C   0  0  0  0  0  0  0  0  0  0  0  0
   -2.2847    3.2248   -0.1006 S   0  0  0  0  0  0  0  0  0  0  0  0
   -2.4817   -0.4100    1.1809 O   0  0  0  0  0  0  0  0  0  0  0  0
    0.0935    1.2396   -0.6353 C   0  0  0  0  0  0  0  0  0  0  0  0
    0.0297    1.7690   -2.0827 C   0  0  0  0  0  0  0  0  0  0  0  0
   -1.2203    1.9016   -2.5034 O   0  0  0  0  0  0  0  0  0  0  0  0
    0.9979    2.0658   -2.7256 O   0  0  0  0  0  0  0  0  0  0  0  0
    1.2944    0.4657   -0.4216 N   0  0  0  0  0  0  0  0  0  0  0  0
    2.5779    0.9217   -0.4560 C   0  0  0  0  0  0  0  0  0  0  0  0
    2.7590    2.3625   -0.1891 C   0  0  0  0  0  0  0  0  0  0  0  0
    3.5850    3.2219   -0.8603 C   0  0  0  0  0  0  0  0  0  0  0  0
    4.3385    2.8552   -2.0915 C   0  0  0  0  0  0  0  0  0  0  0  0
    3.5896    4.5162   -0.2795 C   0  0  0  0  0  0  0  0  0  0  0  0
    2.8053    4.6138    0.8210 C   0  0  0  0  0  0  0  0  0  0  0  0
    2.0153    3.1310    1.1836 S   0  0  0  0  0  0  0  0  0  0  0  0
    3.5135    0.1690   -0.6373 O   0  0  0  0  0  0  0  0  0  0  0  0
    2.5403   -2.8010    4.9041 H   0  0  0  0  0  0  0  0  0  0  0  0
    1.5087   -0.7184    5.7293 H   0  0  0  0  0  0  0  0  0  0  0  0
    0.5024    0.8656    4.1223 H   0  0  0  0  0  0  0  0  0  0  0  0
    0.5069    0.3991    1.7575 H   0  0  0  0  0  0  0  0  0  0  0  0
    3.1531   -4.2664    3.1089 H   0  0  0  0  0  0  0  0  0  0  0  0
    3.2135   -4.7946    0.6949 H   0  0  0  0  0  0  0  0  0  0  0  0
    2.2463   -3.2351   -0.9234 H   0  0  0  0  0  0  0  0  0  0  0  0
    1.4562   -1.3086   -1.5138 H   0  0  0  0  0  0  0  0  0  0  0  0
   -0.8917   -1.6838    0.1709 H   0  0  0  0  0  0  0  0  0  0  0  0
    0.4050   -0.4770   -3.1071 H   0  0  0  0  0  0  0  0  0  0  0  0
   -0.4319   -1.1748   -5.2728 H   0  0  0  0  0  0  0  0  0  0  0  0
   -2.3941   -2.6697   -5.4305 H   0  0  0  0  0  0  0  0  0  0  0  0
   -2.7347   -2.3544    0.0850 H   0  0  0  0  0  0  0  0  0  0  0  0
   -4.6389   -3.8206   -0.1383 H   0  0  0  0  0  0  0  0  0  0  0  0
   -5.3622   -4.6402   -2.3519 H   0  0  0  0  0  0  0  0  0  0  0  0
   -4.1438   -3.9259   -4.3750 H   0  0  0  0  0  0  0  0  0  0  0  0
   -2.1941    0.4884    3.3245 H   0  0  0  0  0  0  0  0  0  0  0  0
   -2.0549    1.9450    4.3389 H   0  0  0  0  0  0  0  0  0  0  0  0
   -3.6395    1.3550    3.8379 H   0  0  0  0  0  0  0  0  0  0  0  0
   -3.1224    4.2346    3.2482 H   0  0  0  0  0  0  0  0  0  0  0  0
   -2.9356    5.3459    0.8820 H   0  0  0  0  0  0  0  0  0  0  0  0
    0.0623    2.1286    0.0098 H   0  0  0  0  0  0  0  0  0  0  0  0
   -1.2541    2.2593   -3.4060 H   0  0  0  0  0  0  0  0  0  0  0  0
    3.6586    2.8519   -2.9436 H   0  0  0  0  0  0  0  0  0  0  0  0
    4.7550    1.8564   -1.9904 H   0  0  0  0  0  0  0  0  0  0  0  0
    5.1366    3.5692   -2.2775 H   0  0  0  0  0  0  0  0  0  0  0  0
    4.1683    5.3341   -0.6706 H   0  0  0  0  0  0  0  0  0  0  0  0
    2.6408    5.4611    1.4564 H   0  0  0  0  0  0  0  0  0  0  0  0
  1  2  2  0  0  0  0
  2  3  4  0  0  0  0
  3  4  2  0  0  0  0
  4  5  4  0  0  0  0
  1  6  4  0  0  0  0
  5  6  4  0  0  0  0
  6  7  4  0  0  0  0
  7  8  2  0  0  0  0
  8  9  4  0  0  0  0
  5 10  4  0  0  0  0
  9 10  2  0  0  0  0
 10 11  1  0  0  0  0
 11 12  1  0  0  0  0
 12 13  1  0  0  0  0
 13 14  2  0  0  0  0
 14 15  4  0  0  0  0
 15 16  2  0  0  0  0
 16 17  4  0  0  0  0
 13 18  4  0  0  0  0
 17 18  4  0  0  0  0
 18 19  4  0  0  0  0
 19 20  2  0  0  0  0
 20 21  4  0  0  0  0
 17 22  4  0  0  0  0
 21 22  2  0  0  0  0
 12 23  1  0  0  0  0
 23 24  1  0  0  0  0
 24 25  1  0  0  0  0
 25 26  2  0  0  0  0
 26 27  1  0  0  0  0
 26 28  4  0  0  0  0
 28 29  2  0  0  0  0
 25 30  1  0  0  0  0
 29 30  1  0  0  0  0
 24 31  2  0  0  0  0
 23 32  1  0  0  0  0
 32 33  1  0  0  0  0
 33 34  1  0  0  0  0
 33 35  2  0  0  0  0
 11 36  1  0  0  0  0
 32 36  1  0  0  0  0
 36 37  1  0  0  0  0
 37 38  1  0  0  0  0
 38 39  2  0  0  0  0
 39 40  1  0  0  0  0
 39 41  4  0  0  0  0
 41 42  2  0  0  0  0
 38 43  1  0  0  0  0
 42 43  1  0  0  0  0
 37 44  2  0  0  0  0
  1 45  1  0  0  0  0
  2 46  1  0  0  0  0
  3 47  1  0  0  0  0
  4 48  1  0  0  0  0
  7 49  1  0  0  0  0
  8 50  1  0  0  0  0
  9 51  1  0  0  0  0
 11 52  1  0  0  0  0
 12 53  1  0  0  0  0
 14 54  1  0  0  0  0
 15 55  1  0  0  0  0
 16 56  1  0  0  0  0
 19 57  1  0  0  0  0
 20 58  1  0  0  0  0
 21 59  1  0  0  0  0
 22 60  1  0  0  0  0
 27 61  1  0  0  0  0
 27 62  1  0  0  0  0
 27 63  1  0  0  0  0
 28 64  1  0  0  0  0
 29 65  1  0  0  0  0
 32 66  1  0  0  0  0
 34 67  1  0  0  0  0
 40 68  1  0  0  0  0
 40 69  1  0  0  0  0
 40 70  1  0  0  0  0
 41 71  1  0  0  0  0
 42 72  1  0  0  0  0
M  END
