
  xtb     03162221573D
 xtb: 6.3.3 (4ae9cef)
 84 92  0     0  0            999 V2000
   -4.2054    3.2728   -0.1071 C   0  0  0  0  0  0  0  0  0  0  0  0
   -4.0182    3.5466   -1.4311 C   0  0  0  0  0  0  0  0  0  0  0  0
   -2.9853    2.9104   -2.1335 C   0  0  0  0  0  0  0  0  0  0  0  0
   -2.1681    2.0103   -1.5095 C   0  0  0  0  0  0  0  0  0  0  0  0
   -2.3283    1.7044   -0.1401 C   0  0  0  0  0  0  0  0  0  0  0  0
   -3.3689    2.3624    0.5718 C   0  0  0  0  0  0  0  0  0  0  0  0
   -3.5492    2.1057    1.9462 C   0  0  0  0  0  0  0  0  0  0  0  0
   -2.7149    1.2526    2.6085 C   0  0  0  0  0  0  0  0  0  0  0  0
   -1.6906    0.5972    1.9142 C   0  0  0  0  0  0  0  0  0  0  0  0
   -1.5079    0.7825    0.5660 C   0  0  0  0  0  0  0  0  0  0  0  0
   -0.4139    0.0175   -0.1369 C   0  0  0  0  0  0  0  0  0  0  0  0
    0.9575    0.6977    0.0948 C   0  0  0  0  0  0  0  0  0  0  0  0
    1.3470    1.5153   -1.1142 C   0  0  0  0  0  0  0  0  0  0  0  0
    1.9866    0.9010   -2.1613 C   0  0  0  0  0  0  0  0  0  0  0  0
    2.3061    1.6063   -3.3285 C   0  0  0  0  0  0  0  0  0  0  0  0
    1.9492    2.9174   -3.4565 C   0  0  0  0  0  0  0  0  0  0  0  0
    1.2646    3.5788   -2.4164 C   0  0  0  0  0  0  0  0  0  0  0  0
    0.9658    2.8815   -1.2125 C   0  0  0  0  0  0  0  0  0  0  0  0
    0.2798    3.5871   -0.1987 C   0  0  0  0  0  0  0  0  0  0  0  0
   -0.1086    4.8856   -0.3733 C   0  0  0  0  0  0  0  0  0  0  0  0
    0.1755    5.5625   -1.5670 C   0  0  0  0  0  0  0  0  0  0  0  0
    0.8567    4.9216   -2.5613 C   0  0  0  0  0  0  0  0  0  0  0  0
    1.8628   -0.4027    0.3826 N   0  0  0  0  0  0  0  0  0  0  0  0
    3.1926   -0.1493    0.5468 C   0  0  0  0  0  0  0  0  0  0  0  0
    4.0810   -1.2958    0.7689 C   0  0  0  0  0  0  0  0  0  0  0  0
    5.4382   -1.3457    0.5859 C   0  0  0  0  0  0  0  0  0  0  0  0
    6.3537   -0.2551    0.1710 C   0  0  0  0  0  0  0  0  0  0  0  0
    5.8167   -2.6997    0.8613 C   0  0  0  0  0  0  0  0  0  0  0  0
    7.0215   -3.4010    0.8485 C   0  0  0  0  0  0  0  0  0  0  0  0
    6.9976   -4.7384    1.1758 C   0  0  0  0  0  0  0  0  0  0  0  0
    5.8058   -5.3851    1.5124 C   0  0  0  0  0  0  0  0  0  0  0  0
    4.6003   -4.7133    1.5351 C   0  0  0  0  0  0  0  0  0  0  0  0
    4.6270   -3.3680    1.2040 C   0  0  0  0  0  0  0  0  0  0  0  0
    3.5784   -2.5161    1.1556 O   0  0  0  0  0  0  0  0  0  0  0  0
    3.6141    0.9931    0.4842 O   0  0  0  0  0  0  0  0  0  0  0  0
    1.1834   -1.6548    0.5258 C   0  0  0  0  0  0  0  0  0  0  0  0
    1.6538   -2.6959   -0.5409 C   0  0  0  0  0  0  0  0  0  0  0  0
    1.2339   -3.9234   -0.3221 O   0  0  0  0  0  0  0  0  0  0  0  0
    2.3299   -2.3769   -1.4766 O   0  0  0  0  0  0  0  0  0  0  0  0
   -0.2251   -1.3372    0.3579 N   0  0  0  0  0  0  0  0  0  0  0  0
   -1.1497   -2.2434    0.7326 C   0  0  0  0  0  0  0  0  0  0  0  0
   -2.5628   -1.8935    0.5724 C   0  0  0  0  0  0  0  0  0  0  0  0
   -3.6042   -2.1731    1.4154 C   0  0  0  0  0  0  0  0  0  0  0  0
   -3.5770   -2.9545    2.6763 C   0  0  0  0  0  0  0  0  0  0  0  0
   -4.7379   -1.5062    0.8491 C   0  0  0  0  0  0  0  0  0  0  0  0
   -4.2724   -0.8945   -0.3307 C   0  0  0  0  0  0  0  0  0  0  0  0
   -5.0989   -0.1371   -1.1457 C   0  0  0  0  0  0  0  0  0  0  0  0
   -6.4109    0.0061   -0.7438 C   0  0  0  0  0  0  0  0  0  0  0  0
   -6.8895   -0.5935    0.4238 C   0  0  0  0  0  0  0  0  0  0  0  0
   -6.0705   -1.3534    1.2283 C   0  0  0  0  0  0  0  0  0  0  0  0
   -2.9563   -1.1413   -0.5005 O   0  0  0  0  0  0  0  0  0  0  0  0
   -0.8026   -3.3225    1.2250 O   0  0  0  0  0  0  0  0  0  0  0  0
   -4.9951    3.7567    0.4495 H   0  0  0  0  0  0  0  0  0  0  0  0
   -4.6578    4.2500   -1.9430 H   0  0  0  0  0  0  0  0  0  0  0  0
   -2.8349    3.1366   -3.1787 H   0  0  0  0  0  0  0  0  0  0  0  0
   -1.3804    1.5473   -2.0816 H   0  0  0  0  0  0  0  0  0  0  0  0
   -4.3533    2.6055    2.4659 H   0  0  0  0  0  0  0  0  0  0  0  0
   -2.8381    1.0681    3.6651 H   0  0  0  0  0  0  0  0  0  0  0  0
   -1.0471   -0.0821    2.4562 H   0  0  0  0  0  0  0  0  0  0  0  0
   -0.6155   -0.0448   -1.2116 H   0  0  0  0  0  0  0  0  0  0  0  0
    0.9246    1.3400    0.9832 H   0  0  0  0  0  0  0  0  0  0  0  0
    2.2600   -0.1415   -2.0926 H   0  0  0  0  0  0  0  0  0  0  0  0
    2.8271    1.0954   -4.1242 H   0  0  0  0  0  0  0  0  0  0  0  0
    2.1784    3.4681   -4.3577 H   0  0  0  0  0  0  0  0  0  0  0  0
    0.0452    3.1039    0.7366 H   0  0  0  0  0  0  0  0  0  0  0  0
   -0.6400    5.3983    0.4152 H   0  0  0  0  0  0  0  0  0  0  0  0
   -0.1404    6.5882   -1.6881 H   0  0  0  0  0  0  0  0  0  0  0  0
    1.0931    5.4329   -3.4838 H   0  0  0  0  0  0  0  0  0  0  0  0
    6.8966   -0.5492   -0.7264 H   0  0  0  0  0  0  0  0  0  0  0  0
    5.7898    0.6523   -0.0209 H   0  0  0  0  0  0  0  0  0  0  0  0
    7.0822   -0.0629    0.9582 H   0  0  0  0  0  0  0  0  0  0  0  0
    7.9426   -2.9038    0.5865 H   0  0  0  0  0  0  0  0  0  0  0  0
    7.9161   -5.3062    1.1713 H   0  0  0  0  0  0  0  0  0  0  0  0
    5.8292   -6.4361    1.7573 H   0  0  0  0  0  0  0  0  0  0  0  0
    3.6751   -5.2066    1.7858 H   0  0  0  0  0  0  0  0  0  0  0  0
    1.3327   -2.0985    1.5257 H   0  0  0  0  0  0  0  0  0  0  0  0
    0.5537   -3.9576    0.4031 H   0  0  0  0  0  0  0  0  0  0  0  0
   -3.8260   -2.3115    3.5201 H   0  0  0  0  0  0  0  0  0  0  0  0
   -2.5944   -3.3906    2.8281 H   0  0  0  0  0  0  0  0  0  0  0  0
   -4.3152   -3.7537    2.6334 H   0  0  0  0  0  0  0  0  0  0  0  0
   -4.7201    0.3281   -2.0409 H   0  0  0  0  0  0  0  0  0  0  0  0
   -7.0845    0.5985   -1.3440 H   0  0  0  0  0  0  0  0  0  0  0  0
   -7.9248   -0.4538    0.6964 H   0  0  0  0  0  0  0  0  0  0  0  0
   -6.4411   -1.8158    2.1299 H   0  0  0  0  0  0  0  0  0  0  0  0
  1  2  2  0  0  0  0
  2  3  4  0  0  0  0
  3  4  2  0  0  0  0
  4  5  4  0  0  0  0
  1  6  4  0  0  0  0
  5  6  4  0  0  0  0
  6  7  4  0  0  0  0
  7  8  2  0  0  0  0
  8  9  4  0  0  0  0
  5 10  4  0  0  0  0
  9 10  2  0  0  0  0
 10 11  1  0  0  0  0
 11 12  1  0  0  0  0
 12 13  1  0  0  0  0
 13 14  2  0  0  0  0
 14 15  4  0  0  0  0
 15 16  2  0  0  0  0
 16 17  4  0  0  0  0
 13 18  4  0  0  0  0
 17 18  4  0  0  0  0
 18 19  4  0  0  0  0
 19 20  2  0  0  0  0
 20 21  4  0  0  0  0
 17 22  4  0  0  0  0
 21 22  2  0  0  0  0
 12 23  1  0  0  0  0
 23 24  1  0  0  0  0
 24 25  1  0  0  0  0
 25 26  2  0  0  0  0
 26 27  1  0  0  0  0
 26 28  1  0  0  0  0
 28 29  4  0  0  0  0
 29 30  2  0  0  0  0
 30 31  4  0  0  0  0
 31 32  4  0  0  0  0
 28 33  4  0  0  0  0
 32 33  4  0  0  0  0
 25 34  1  0  0  0  0
 33 34  1  0  0  0  0
 24 35  2  0  0  0  0
 23 36  1  0  0  0  0
 36 37  1  0  0  0  0
 37 38  4  0  0  0  0
 37 39  2  0  0  0  0
 11 40  1  0  0  0  0
 36 40  1  0  0  0  0
 40 41  4  0  0  0  0
 41 42  1  0  0  0  0
 42 43  2  0  0  0  0
 43 44  1  0  0  0  0
 43 45  1  0  0  0  0
 45 46  4  0  0  0  0
 46 47  4  0  0  0  0
 47 48  4  0  0  0  0
 48 49  4  0  0  0  0
 45 50  4  0  0  0  0
 49 50  2  0  0  0  0
 42 51  1  0  0  0  0
 46 51  1  0  0  0  0
 41 52  2  0  0  0  0
  1 53  1  0  0  0  0
  2 54  1  0  0  0  0
  3 55  1  0  0  0  0
  4 56  1  0  0  0  0
  7 57  1  0  0  0  0
  8 58  1  0  0  0  0
  9 59  1  0  0  0  0
 11 60  1  0  0  0  0
 12 61  1  0  0  0  0
 14 62  1  0  0  0  0
 15 63  1  0  0  0  0
 16 64  1  0  0  0  0
 19 65  1  0  0  0  0
 20 66  1  0  0  0  0
 21 67  1  0  0  0  0
 22 68  1  0  0  0  0
 27 69  1  0  0  0  0
 27 70  1  0  0  0  0
 27 71  1  0  0  0  0
 29 72  1  0  0  0  0
 30 73  1  0  0  0  0
 31 74  1  0  0  0  0
 32 75  1  0  0  0  0
 36 76  1  0  0  0  0
 38 77  1  0  0  0  0
 44 78  1  0  0  0  0
 44 79  1  0  0  0  0
 44 80  1  0  0  0  0
 47 81  1  0  0  0  0
 48 82  1  0  0  0  0
 49 83  1  0  0  0  0
 50 84  1  0  0  0  0
M  END
