72

C      2.093050   -3.762983   -0.167412
C      1.938470   -3.814581   -1.675229
F      0.631434   -3.911480   -2.047251
F      2.557840   -4.881548   -2.255729
F      2.423477   -2.717123   -2.314521
C      2.839915   -4.786019    0.454786
C      3.000534   -4.826978    1.837455
C      2.419478   -3.843302    2.624252
C      1.681688   -2.819941    2.031207
C      1.500213   -2.752638    0.634949
C      0.674109   -1.618431    0.036972
C     -0.835180   -1.644204    0.437159
C     -1.704920   -2.340743   -0.607186
C     -2.418656   -3.531264   -0.317402
C     -2.347046   -4.219352    1.031200
F     -2.814840   -3.456429    2.054260
F     -3.047076   -5.387626    1.088740
F     -1.067623   -4.548630    1.363810
C     -3.225897   -4.105641   -1.319917
C     -3.329625   -3.529041   -2.584411
C     -2.628644   -2.365386   -2.873293
C     -1.826924   -1.776341   -1.896229
N     -1.171915   -0.222617    0.586434
C     -2.453382    0.186762    0.927048
C     -2.695526    1.615264    0.996032
C     -3.364382    2.226399    2.038025
O     -3.409776    3.571267    1.862757
C     -2.819204    3.837174    0.667079
C     -2.385512    2.659932    0.068335
C     -1.790534    2.745859   -1.207465
C     -1.623750    4.007196   -1.796709
C     -2.048837    5.166148   -1.144387
C     -2.668006    5.103637    0.107655
O     -3.351953   -0.608354    1.176992
C      0.023897    0.554978    0.878134
C      0.125202    0.825221    2.410616
O      0.145056    2.136200    2.751457
O      0.164568   -0.052201    3.261766
N      1.136091   -0.283331    0.443495
C      2.346382    0.209910   -0.017707
C      2.659640    1.576924    0.334000
C      3.057635    2.013827    1.581149
O      3.206252    3.363838    1.589620
C      2.967216    3.800867    0.321918
C      2.645699    2.731324   -0.505043
C      2.372804    2.993437   -1.861480
C      2.429676    4.318631   -2.317803
C      2.746496    5.366466   -1.449303
C      3.024474    5.126771   -0.099381
O      3.102522   -0.441990   -0.729663
H      3.299529   -5.571826   -0.143431
H      3.572275   -5.627859    2.297112
H      2.530054   -3.872267    3.707247
H      1.241199   -2.076700    2.689625
H      0.771310   -1.622217   -1.053454
H     -0.972235   -2.082725    1.430472
H     -3.788446   -5.016746   -1.115206
H     -3.958352   -3.989801   -3.342010
H     -2.708890   -1.914316   -3.859721
H     -1.297659   -0.861000   -2.152288
H     -3.823752    1.855272    2.945078
H     -1.468837    1.855234   -1.738853
H     -1.164299    4.083373   -2.782228
H     -1.914361    6.133946   -1.625991
H     -3.023149    5.989628    0.620041
H      0.021056    1.489936    0.321031
H      0.117236    2.791816    2.024608
H      3.239955    1.518704    2.527679
H      2.139095    2.186661   -2.550415
H      2.235347    4.530773   -3.368302
H      2.787793    6.385177   -1.827705
H      3.280517    5.925083    0.586934
