66

C     -3.270101    1.509684   -4.350127
C     -2.785313    0.423173   -5.072083
C     -2.056296   -0.558764   -4.420361
C     -1.805277   -0.446684   -3.050146
C     -2.254771    0.657019   -2.284556
C     -3.020260    1.636028   -2.973036
C     -3.534517    2.738361   -2.282163
C     -3.314195    2.888371   -0.920602
C     -2.553029    1.948881   -0.232747
C     -1.991990    0.836507   -0.886210
C     -1.084205   -0.137448   -0.124174
C      0.427076    0.094165   -0.437354
C      1.080000   -1.153883   -1.051880
C      1.031318   -2.362329   -0.318678
C      1.569478   -3.537558   -0.825678
C      2.174418   -3.533741   -2.075501
C      2.257716   -2.357788   -2.833051
C      1.716015   -1.142073   -2.333073
C      1.850939    0.001255   -3.159324
C      2.480789   -0.052491   -4.407247
C      2.996693   -1.251604   -4.874214
C      2.884757   -2.396906   -4.090504
N      1.046572    0.403834    0.854290
C      2.362035    0.839967    0.931130
C      2.974373    0.882326    2.247306
C      3.075122   -0.115513    3.202207
C      3.759136    0.327182    4.374290
C      4.163912    1.630579    4.244777
Cl     5.014870    2.556458    5.412878
S      3.759990    2.320340    2.755577
O      2.975274    1.170144   -0.081821
C      0.084841    0.388183    1.942508
C     -0.058479    1.813813    2.539839
O      0.207002    1.850784    3.865215
O     -0.351395    2.842830    1.952874
N     -1.169397   -0.057140    1.343190
C     -2.208510   -0.674393    2.023249
C     -2.208850   -0.563624    3.466241
C     -1.675814   -1.433180    4.400077
C     -1.885788   -0.972423    5.735325
C     -2.586674    0.206349    5.745726
Cl    -3.039540    1.117611    7.127955
S     -3.021848    0.750616    4.203593
O     -3.074057   -1.312018    1.431704
H     -3.850708    2.265797   -4.875123
H     -2.984210    0.342378   -6.136749
H     -1.678797   -1.417267   -4.970212
H     -1.252564   -1.263171   -2.595314
H     -4.124655    3.490245   -2.801486
H     -3.728551    3.742314   -0.391368
H     -2.411250    2.113201    0.829395
H     -1.412807   -1.148928   -0.391169
H      0.559102    0.977566   -1.064542
H      0.559147   -2.399140    0.660201
H      1.514437   -4.458871   -0.251704
H      2.590741   -4.464509   -2.455425
H      1.483666    0.975138   -2.846943
H      2.571661    0.851248   -5.005213
H      3.488200   -1.295345   -5.841973
H      3.299833   -3.328580   -4.471165
H      2.690156   -1.118263    3.062880
H      3.949606   -0.279705    5.250469
H      0.405764   -0.322010    2.708498
H      0.099281    2.797832    4.102304
H     -1.163466   -2.352556    4.140645
H     -1.546607   -1.482276    6.628570
