
  xtb     03172201433D
 xtb: 6.3.3 (4ae9cef)
 66 72  0     0  0            999 V2000
   -3.2440    1.3050   -4.2694 C   0  0  0  0  0  0  0  0  0  0  0  0
   -3.0847    0.0814   -4.8529 C   0  0  0  0  0  0  0  0  0  0  0  0
   -2.3992   -0.9306   -4.1668 C   0  0  0  0  0  0  0  0  0  0  0  0
   -1.8863   -0.7048   -2.9204 C   0  0  0  0  0  0  0  0  0  0  0  0
   -2.0243    0.5497   -2.2852 C   0  0  0  0  0  0  0  0  0  0  0  0
   -2.7221    1.5730   -2.9862 C   0  0  0  0  0  0  0  0  0  0  0  0
   -2.8745    2.8460   -2.4001 C   0  0  0  0  0  0  0  0  0  0  0  0
   -2.3409    3.1138   -1.1728 C   0  0  0  0  0  0  0  0  0  0  0  0
   -1.6391    2.1186   -0.4820 C   0  0  0  0  0  0  0  0  0  0  0  0
   -1.4893    0.8584   -1.0050 C   0  0  0  0  0  0  0  0  0  0  0  0
   -0.7008   -0.1627   -0.2203 C   0  0  0  0  0  0  0  0  0  0  0  0
    0.8203    0.0640   -0.3286 C   0  0  0  0  0  0  0  0  0  0  0  0
    1.4998   -1.0936   -1.0209 C   0  0  0  0  0  0  0  0  0  0  0  0
    1.9653   -2.1496   -0.2797 C   0  0  0  0  0  0  0  0  0  0  0  0
    2.5508   -3.2671   -0.8883 C   0  0  0  0  0  0  0  0  0  0  0  0
    2.6473   -3.3311   -2.2481 C   0  0  0  0  0  0  0  0  0  0  0  0
    2.1713   -2.2742   -3.0511 C   0  0  0  0  0  0  0  0  0  0  0  0
    1.5963   -1.1263   -2.4382 C   0  0  0  0  0  0  0  0  0  0  0  0
    1.1394   -0.0859   -3.2773 C   0  0  0  0  0  0  0  0  0  0  0  0
    1.2259   -0.1854   -4.6377 C   0  0  0  0  0  0  0  0  0  0  0  0
    1.7793   -1.3250   -5.2379 C   0  0  0  0  0  0  0  0  0  0  0  0
    2.2484   -2.3429   -4.4581 C   0  0  0  0  0  0  0  0  0  0  0  0
    1.2748    0.2240    1.0469 N   0  0  0  0  0  0  0  0  0  0  0  0
    2.4594    0.8731    1.2482 C   0  0  0  0  0  0  0  0  0  0  0  0
    2.8741    1.0372    2.6562 C   0  0  0  0  0  0  0  0  0  0  0  0
    2.8953    0.1260    3.6755 C   0  0  0  0  0  0  0  0  0  0  0  0
    3.4833    0.6222    4.8530 C   0  0  0  0  0  0  0  0  0  0  0  0
    3.9120    1.9088    4.7051 C   0  0  0  0  0  0  0  0  0  0  0  0
    4.6554    2.8725    5.9000 Cl  0  0  0  0  0  0  0  0  0  0  0  0
    3.6222    2.5294    3.1150 S   0  0  0  0  0  0  0  0  0  0  0  0
    3.1445    1.2509    0.3229 O   0  0  0  0  0  0  0  0  0  0  0  0
    0.2191    0.0708    2.0155 C   0  0  0  0  0  0  0  0  0  0  0  0
    0.0996    1.3322    2.8994 C   0  0  0  0  0  0  0  0  0  0  0  0
    0.1164    1.0361    4.1960 O   0  0  0  0  0  0  0  0  0  0  0  0
   -0.0144    2.4420    2.4656 O   0  0  0  0  0  0  0  0  0  0  0  0
   -0.9695   -0.0988    1.2121 N   0  0  0  0  0  0  0  0  0  0  0  0
   -2.2337   -0.2921    1.6657 C   0  0  0  0  0  0  0  0  0  0  0  0
   -2.3756   -0.2877    3.1481 C   0  0  0  0  0  0  0  0  0  0  0  0
   -2.0177   -1.2638    4.0287 C   0  0  0  0  0  0  0  0  0  0  0  0
   -2.3702   -0.9695    5.3622 C   0  0  0  0  0  0  0  0  0  0  0  0
   -2.9997    0.2318    5.4688 C   0  0  0  0  0  0  0  0  0  0  0  0
   -3.5658    0.9658    6.9021 Cl  0  0  0  0  0  0  0  0  0  0  0  0
   -3.1896    1.0202    3.9339 S   0  0  0  0  0  0  0  0  0  0  0  0
   -3.1704   -0.4664    0.9197 O   0  0  0  0  0  0  0  0  0  0  0  0
   -3.7712    2.0956   -4.7843 H   0  0  0  0  0  0  0  0  0  0  0  0
   -3.4831   -0.1153   -5.8372 H   0  0  0  0  0  0  0  0  0  0  0  0
   -2.2743   -1.8973   -4.6319 H   0  0  0  0  0  0  0  0  0  0  0  0
   -1.3602   -1.5086   -2.4299 H   0  0  0  0  0  0  0  0  0  0  0  0
   -3.4159    3.6059   -2.9450 H   0  0  0  0  0  0  0  0  0  0  0  0
   -2.4487    4.0896   -0.7239 H   0  0  0  0  0  0  0  0  0  0  0  0
   -1.2126    2.3592    0.4804 H   0  0  0  0  0  0  0  0  0  0  0  0
   -0.9632   -1.1731   -0.5512 H   0  0  0  0  0  0  0  0  0  0  0  0
    1.0471    0.9974   -0.8551 H   0  0  0  0  0  0  0  0  0  0  0  0
    1.8879   -2.1237    0.7976 H   0  0  0  0  0  0  0  0  0  0  0  0
    2.9146   -4.0754   -0.2716 H   0  0  0  0  0  0  0  0  0  0  0  0
    3.0862   -4.1927   -2.7300 H   0  0  0  0  0  0  0  0  0  0  0  0
    0.7101    0.8049   -2.8487 H   0  0  0  0  0  0  0  0  0  0  0  0
    0.8633    0.6200   -5.2587 H   0  0  0  0  0  0  0  0  0  0  0  0
    1.8368   -1.3870   -6.3144 H   0  0  0  0  0  0  0  0  0  0  0  0
    2.6866   -3.2234   -4.9061 H   0  0  0  0  0  0  0  0  0  0  0  0
    2.5258   -0.8791    3.5873 H   0  0  0  0  0  0  0  0  0  0  0  0
    3.5870    0.0591    5.7615 H   0  0  0  0  0  0  0  0  0  0  0  0
    0.3773   -0.7978    2.6759 H   0  0  0  0  0  0  0  0  0  0  0  0
    0.0178    1.8366    4.7389 H   0  0  0  0  0  0  0  0  0  0  0  0
   -1.5315   -2.1769    3.7354 H   0  0  0  0  0  0  0  0  0  0  0  0
   -2.1683   -1.6137    6.1973 H   0  0  0  0  0  0  0  0  0  0  0  0
  1  2  2  0  0  0  0
  2  3  4  0  0  0  0
  3  4  2  0  0  0  0
  4  5  4  0  0  0  0
  1  6  4  0  0  0  0
  5  6  4  0  0  0  0
  6  7  4  0  0  0  0
  7  8  2  0  0  0  0
  8  9  4  0  0  0  0
  5 10  4  0  0  0  0
  9 10  2  0  0  0  0
 10 11  1  0  0  0  0
 11 12  1  0  0  0  0
 12 13  1  0  0  0  0
 13 14  2  0  0  0  0
 14 15  4  0  0  0  0
 15 16  2  0  0  0  0
 16 17  4  0  0  0  0
 13 18  4  0  0  0  0
 17 18  4  0  0  0  0
 18 19  4  0  0  0  0
 19 20  2  0  0  0  0
 20 21  4  0  0  0  0
 17 22  4  0  0  0  0
 21 22  2  0  0  0  0
 12 23  1  0  0  0  0
 23 24  1  0  0  0  0
 24 25  1  0  0  0  0
 25 26  2  0  0  0  0
 26 27  4  0  0  0  0
 27 28  2  0  0  0  0
 28 29  1  0  0  0  0
 25 30  1  0  0  0  0
 28 30  1  0  0  0  0
 24 31  2  0  0  0  0
 23 32  1  0  0  0  0
 32 33  1  0  0  0  0
 33 34  1  0  0  0  0
 33 35  2  0  0  0  0
 11 36  1  0  0  0  0
 32 36  1  0  0  0  0
 36 37  4  0  0  0  0
 37 38  1  0  0  0  0
 38 39  2  0  0  0  0
 39 40  4  0  0  0  0
 40 41  2  0  0  0  0
 41 42  1  0  0  0  0
 38 43  1  0  0  0  0
 41 43  1  0  0  0  0
 37 44  2  0  0  0  0
  1 45  1  0  0  0  0
  2 46  1  0  0  0  0
  3 47  1  0  0  0  0
  4 48  1  0  0  0  0
  7 49  1  0  0  0  0
  8 50  1  0  0  0  0
  9 51  1  0  0  0  0
 11 52  1  0  0  0  0
 12 53  1  0  0  0  0
 14 54  1  0  0  0  0
 15 55  1  0  0  0  0
 16 56  1  0  0  0  0
 19 57  1  0  0  0  0
 20 58  1  0  0  0  0
 21 59  1  0  0  0  0
 22 60  1  0  0  0  0
 26 61  1  0  0  0  0
 27 62  1  0  0  0  0
 32 63  1  0  0  0  0
 34 64  1  0  0  0  0
 39 65  1  0  0  0  0
 40 66  1  0  0  0  0
M  END
