66

C      0.916101   -2.226716    2.736955
C      0.807114   -3.515091    1.939795
F      1.985090   -3.919017    1.402681
F     -0.083718   -3.445338    0.907837
F      0.371387   -4.565465    2.696169
C      1.115705   -2.355002    4.130190
C      1.235587   -1.238693    4.952298
C      1.162609    0.028793    4.398083
C      0.971993    0.181075    3.024119
C      0.856088   -0.927298    2.161916
C      0.676759   -0.712282    0.656694
C     -0.705727   -0.114107    0.262897
C     -1.372437   -0.966648   -0.827717
C     -2.418938   -1.881732   -0.538117
C     -2.967689   -2.118689    0.854245
F     -3.902289   -1.197569    1.206327
F     -3.564256   -3.331573    1.008120
F     -2.013923   -2.057932    1.821838
C     -3.011212   -2.605164   -1.595092
C     -2.566396   -2.465364   -2.906121
C     -1.517767   -1.603551   -3.187933
C     -0.925043   -0.866967   -2.162533
N     -0.402011    1.267888   -0.184836
C     -1.269884    2.143214   -0.816835
C     -2.726324    1.900319   -0.788132
C     -3.408643    1.804625   -2.005611
C     -4.781586    1.557656   -2.014815
C     -5.466743    1.432365   -0.806187
Br    -7.319007    1.064350   -0.817999
C     -4.793098    1.564321    0.410381
C     -3.417427    1.803452    0.423722
O     -0.855614    3.157043   -1.367652
C      1.045534    1.482404   -0.314914
C      1.604882    2.664814    0.554387
O      0.669716    3.399942    1.207976
O      2.796329    2.919155    0.686013
N      1.653355    0.216154    0.084155
C      2.930061   -0.240486   -0.197149
C      3.846981    0.578330   -1.009725
C      3.597102    0.782013   -2.370725
C      4.505510    1.517659   -3.134764
C      5.662849    2.023659   -2.539830
Br     6.889129    3.021830   -3.578309
C      5.931558    1.786968   -1.192127
C      5.027315    1.047439   -0.427911
O      3.339937   -1.336234    0.178170
H      1.191016   -3.345690    4.583186
H      1.399073   -1.360445    6.020818
H      1.278742    0.904565    5.029237
H      0.943171    1.195543    2.644210
H      0.844387   -1.661027    0.139620
H     -1.372530   -0.011540    1.122611
H     -3.826839   -3.300636   -1.393476
H     -3.026971   -3.040872   -3.705658
H     -1.150486   -1.506633   -4.207398
H     -0.106981   -0.202014   -2.429973
H     -2.871742    1.909798   -2.947163
H     -5.306161    1.464610   -2.963057
H     -5.328183    1.463937    1.352758
H     -2.903280    1.909645    1.375381
H      1.271458    1.709769   -1.360670
H     -0.239699    3.152463    0.956422
H      2.716042    0.356014   -2.841987
H      4.314167    1.678477   -4.192769
H      6.833136    2.174976   -0.723958
H      5.232719    0.854509    0.621933
