
  xtb     03162223363D
 xtb: 6.3.3 (4ae9cef)
 66 70  0     0  0            999 V2000
    0.9533   -2.6056    2.1210 C   0  0  0  0  0  0  0  0  0  0  0  0
    0.6288   -3.6897    1.1323 C   0  0  0  0  0  0  0  0  0  0  0  0
    1.5007   -3.7783    0.1127 F   0  0  0  0  0  0  0  0  0  0  0  0
   -0.5823   -3.5086    0.5442 F   0  0  0  0  0  0  0  0  0  0  0  0
    0.5781   -4.9067    1.6812 F   0  0  0  0  0  0  0  0  0  0  0  0
    1.1998   -2.9657    3.4398 C   0  0  0  0  0  0  0  0  0  0  0  0
    1.4883   -1.9985    4.3837 C   0  0  0  0  0  0  0  0  0  0  0  0
    1.5314   -0.6667    4.0120 C   0  0  0  0  0  0  0  0  0  0  0  0
    1.2839   -0.3047    2.7013 C   0  0  0  0  0  0  0  0  0  0  0  0
    0.9957   -1.2641    1.7379 C   0  0  0  0  0  0  0  0  0  0  0  0
    0.7267   -0.8125    0.3224 C   0  0  0  0  0  0  0  0  0  0  0  0
   -0.6164   -0.0471    0.1880 C   0  0  0  0  0  0  0  0  0  0  0  0
   -1.6638   -0.9202   -0.4586 C   0  0  0  0  0  0  0  0  0  0  0  0
   -2.7487   -1.4632    0.2321 C   0  0  0  0  0  0  0  0  0  0  0  0
   -2.9181   -1.2666    1.7151 C   0  0  0  0  0  0  0  0  0  0  0  0
   -3.0339    0.0292    2.0791 F   0  0  0  0  0  0  0  0  0  0  0  0
   -4.0047   -1.8721    2.1988 F   0  0  0  0  0  0  0  0  0  0  0  0
   -1.8750   -1.7406    2.4199 F   0  0  0  0  0  0  0  0  0  0  0  0
   -3.6754   -2.2584   -0.4328 C   0  0  0  0  0  0  0  0  0  0  0  0
   -3.5230   -2.5364   -1.7774 C   0  0  0  0  0  0  0  0  0  0  0  0
   -2.4274   -2.0390   -2.4608 C   0  0  0  0  0  0  0  0  0  0  0  0
   -1.5119   -1.2410   -1.8037 C   0  0  0  0  0  0  0  0  0  0  0  0
   -0.2778    1.1070   -0.6375 N   0  0  0  0  0  0  0  0  0  0  0  0
   -1.0906    1.8939   -1.3739 C   0  0  0  0  0  0  0  0  0  0  0  0
   -2.5525    1.6380   -1.2952 C   0  0  0  0  0  0  0  0  0  0  0  0
   -3.2487    1.2446   -2.4330 C   0  0  0  0  0  0  0  0  0  0  0  0
   -4.6057    0.9988   -2.3646 C   0  0  0  0  0  0  0  0  0  0  0  0
   -5.2649    1.1796   -1.1590 C   0  0  0  0  0  0  0  0  0  0  0  0
   -7.1187    0.7870   -1.0482 Br  0  0  0  0  0  0  0  0  0  0  0  0
   -4.5979    1.6397   -0.0363 C   0  0  0  0  0  0  0  0  0  0  0  0
   -3.2366    1.8703   -0.1084 C   0  0  0  0  0  0  0  0  0  0  0  0
   -0.6222    2.7931   -2.0663 O   0  0  0  0  0  0  0  0  0  0  0  0
    1.1589    1.3258   -0.7006 C   0  0  0  0  0  0  0  0  0  0  0  0
    1.5473    2.6081    0.1064 C   0  0  0  0  0  0  0  0  0  0  0  0
    1.2607    3.7373   -0.5001 O   0  0  0  0  0  0  0  0  0  0  0  0
    2.0610    2.5371    1.1852 O   0  0  0  0  0  0  0  0  0  0  0  0
    1.7302    0.1368   -0.1431 N   0  0  0  0  0  0  0  0  0  0  0  0
    3.0609   -0.1137    0.0271 C   0  0  0  0  0  0  0  0  0  0  0  0
    3.9735    0.9169   -0.5568 C   0  0  0  0  0  0  0  0  0  0  0  0
    4.0682    1.0839   -1.9338 C   0  0  0  0  0  0  0  0  0  0  0  0
    4.9452    2.0115   -2.4657 C   0  0  0  0  0  0  0  0  0  0  0  0
    5.7227    2.7711   -1.6076 C   0  0  0  0  0  0  0  0  0  0  0  0
    6.9148    4.0606   -2.3355 Br  0  0  0  0  0  0  0  0  0  0  0  0
    5.6552    2.6032   -0.2347 C   0  0  0  0  0  0  0  0  0  0  0  0
    4.7851    1.6644    0.2877 C   0  0  0  0  0  0  0  0  0  0  0  0
    3.4565   -1.1089    0.5881 O   0  0  0  0  0  0  0  0  0  0  0  0
    1.1664   -4.0059    3.7232 H   0  0  0  0  0  0  0  0  0  0  0  0
    1.6816   -2.2880    5.4047 H   0  0  0  0  0  0  0  0  0  0  0  0
    1.7604    0.0956    4.7407 H   0  0  0  0  0  0  0  0  0  0  0  0
    1.3455    0.7348    2.4155 H   0  0  0  0  0  0  0  0  0  0  0  0
    0.7332   -1.6679   -0.3620 H   0  0  0  0  0  0  0  0  0  0  0  0
   -0.9314    0.3029    1.1765 H   0  0  0  0  0  0  0  0  0  0  0  0
   -4.5122   -2.6682    0.1103 H   0  0  0  0  0  0  0  0  0  0  0  0
   -4.2483   -3.1543   -2.2821 H   0  0  0  0  0  0  0  0  0  0  0  0
   -2.2829   -2.2748   -3.5037 H   0  0  0  0  0  0  0  0  0  0  0  0
   -0.6602   -0.8518   -2.3421 H   0  0  0  0  0  0  0  0  0  0  0  0
   -2.7224    1.1175   -3.3661 H   0  0  0  0  0  0  0  0  0  0  0  0
   -5.1487    0.6707   -3.2369 H   0  0  0  0  0  0  0  0  0  0  0  0
   -5.1291    1.8069    0.8873 H   0  0  0  0  0  0  0  0  0  0  0  0
   -2.7127    2.2337    0.7618 H   0  0  0  0  0  0  0  0  0  0  0  0
    1.4543    1.4855   -1.7529 H   0  0  0  0  0  0  0  0  0  0  0  0
    0.6775    3.6064   -1.2957 H   0  0  0  0  0  0  0  0  0  0  0  0
    3.4754    0.4714   -2.5981 H   0  0  0  0  0  0  0  0  0  0  0  0
    5.0260    2.1424   -3.5337 H   0  0  0  0  0  0  0  0  0  0  0  0
    6.2776    3.1961    0.4171 H   0  0  0  0  0  0  0  0  0  0  0  0
    4.7193    1.5171    1.3537 H   0  0  0  0  0  0  0  0  0  0  0  0
  1  2  1  0  0  0  0
  2  3  1  0  0  0  0
  2  4  1  0  0  0  0
  2  5  1  0  0  0  0
  1  6  4  0  0  0  0
  6  7  4  0  0  0  0
  7  8  4  0  0  0  0
  8  9  4  0  0  0  0
  1 10  4  0  0  0  0
  9 10  4  0  0  0  0
 10 11  1  0  0  0  0
 11 12  1  0  0  0  0
 12 13  1  0  0  0  0
 13 14  4  0  0  0  0
 14 15  1  0  0  0  0
 15 16  1  0  0  0  0
 15 17  1  0  0  0  0
 15 18  1  0  0  0  0
 14 19  4  0  0  0  0
 19 20  4  0  0  0  0
 20 21  4  0  0  0  0
 13 22  4  0  0  0  0
 21 22  4  0  0  0  0
 12 23  1  0  0  0  0
 23 24  4  0  0  0  0
 24 25  1  0  0  0  0
 25 26  4  0  0  0  0
 26 27  4  0  0  0  0
 27 28  4  0  0  0  0
 28 29  1  0  0  0  0
 28 30  4  0  0  0  0
 25 31  4  0  0  0  0
 30 31  4  0  0  0  0
 24 32  2  0  0  0  0
 23 33  1  0  0  0  0
 33 34  1  0  0  0  0
 34 35  4  0  0  0  0
 34 36  2  0  0  0  0
 11 37  1  0  0  0  0
 33 37  1  0  0  0  0
 37 38  1  0  0  0  0
 38 39  1  0  0  0  0
 39 40  4  0  0  0  0
 40 41  4  0  0  0  0
 41 42  4  0  0  0  0
 42 43  1  0  0  0  0
 42 44  4  0  0  0  0
 39 45  4  0  0  0  0
 44 45  4  0  0  0  0
 38 46  2  0  0  0  0
  6 47  1  0  0  0  0
  7 48  1  0  0  0  0
  8 49  1  0  0  0  0
  9 50  1  0  0  0  0
 11 51  1  0  0  0  0
 12 52  1  0  0  0  0
 19 53  1  0  0  0  0
 20 54  1  0  0  0  0
 21 55  1  0  0  0  0
 22 56  1  0  0  0  0
 26 57  1  0  0  0  0
 27 58  1  0  0  0  0
 30 59  1  0  0  0  0
 31 60  1  0  0  0  0
 33 61  1  0  0  0  0
 35 62  1  0  0  0  0
 40 63  1  0  0  0  0
 41 64  1  0  0  0  0
 44 65  1  0  0  0  0
 45 66  1  0  0  0  0
M  END
