
  xtb     03172202063D
 xtb: 6.3.3 (4ae9cef)
 72 76  0     0  0            999 V2000
    1.4869    3.6551    0.7658 C   0  0  0  0  0  0  0  0  0  0  0  0
    0.6603    3.9272    1.9910 C   0  0  0  0  0  0  0  0  0  0  0  0
    0.9080    5.1224    2.5390 F   0  0  0  0  0  0  0  0  0  0  0  0
   -0.6683    3.9205    1.7237 F   0  0  0  0  0  0  0  0  0  0  0  0
    0.8291    3.0297    2.9786 F   0  0  0  0  0  0  0  0  0  0  0  0
    2.3641    4.6413    0.3306 C   0  0  0  0  0  0  0  0  0  0  0  0
    3.1231    4.4475   -0.8069 C   0  0  0  0  0  0  0  0  0  0  0  0
    3.0020    3.2674   -1.5189 C   0  0  0  0  0  0  0  0  0  0  0  0
    2.1294    2.2876   -1.0885 C   0  0  0  0  0  0  0  0  0  0  0  0
    1.3648    2.4580    0.0599 C   0  0  0  0  0  0  0  0  0  0  0  0
    0.4210    1.3565    0.4679 C   0  0  0  0  0  0  0  0  0  0  0  0
   -0.7488    1.1855   -0.5244 C   0  0  0  0  0  0  0  0  0  0  0  0
   -1.9757    1.9430   -0.0912 C   0  0  0  0  0  0  0  0  0  0  0  0
   -2.4743    3.0433   -0.7880 C   0  0  0  0  0  0  0  0  0  0  0  0
   -1.7973    3.5453   -2.0321 C   0  0  0  0  0  0  0  0  0  0  0  0
   -0.5184    3.9282   -1.8005 F   0  0  0  0  0  0  0  0  0  0  0  0
   -2.3997    4.6147   -2.5647 F   0  0  0  0  0  0  0  0  0  0  0  0
   -1.7241    2.6358   -3.0204 F   0  0  0  0  0  0  0  0  0  0  0  0
   -3.5997    3.7165   -0.3283 C   0  0  0  0  0  0  0  0  0  0  0  0
   -4.2354    3.3044    0.8265 C   0  0  0  0  0  0  0  0  0  0  0  0
   -3.7412    2.2219    1.5326 C   0  0  0  0  0  0  0  0  0  0  0  0
   -2.6208    1.5560    1.0779 C   0  0  0  0  0  0  0  0  0  0  0  0
   -0.9752   -0.2566   -0.5095 N   0  0  0  0  0  0  0  0  0  0  0  0
   -2.1167   -0.8171   -1.0065 C   0  0  0  0  0  0  0  0  0  0  0  0
   -2.1299   -2.3132   -0.9864 C   0  0  0  0  0  0  0  0  0  0  0  0
   -2.4375   -3.0148    0.1799 C   0  0  0  0  0  0  0  0  0  0  0  0
   -2.7846   -2.2858    1.4445 C   0  0  0  0  0  0  0  0  0  0  0  0
   -2.4391   -4.4022    0.1340 C   0  0  0  0  0  0  0  0  0  0  0  0
   -2.1585   -5.0785   -1.0397 C   0  0  0  0  0  0  0  0  0  0  0  0
   -1.8935   -4.3734   -2.2000 C   0  0  0  0  0  0  0  0  0  0  0  0
   -1.8853   -2.9913   -2.1725 C   0  0  0  0  0  0  0  0  0  0  0  0
   -3.0323   -0.1425   -1.4218 O   0  0  0  0  0  0  0  0  0  0  0  0
    0.2251   -0.9686   -0.1430 C   0  0  0  0  0  0  0  0  0  0  0  0
    0.8861   -1.6413   -1.3659 C   0  0  0  0  0  0  0  0  0  0  0  0
    1.2836   -0.7486   -2.2687 O   0  0  0  0  0  0  0  0  0  0  0  0
    0.9938   -2.8261   -1.5046 O   0  0  0  0  0  0  0  0  0  0  0  0
    1.0690    0.0496    0.4346 N   0  0  0  0  0  0  0  0  0  0  0  0
    2.3166   -0.1516    0.9461 C   0  0  0  0  0  0  0  0  0  0  0  0
    2.8413   -1.5344    0.7171 C   0  0  0  0  0  0  0  0  0  0  0  0
    3.7570   -1.6996   -0.3172 C   0  0  0  0  0  0  0  0  0  0  0  0
    4.2650   -2.9514   -0.6056 C   0  0  0  0  0  0  0  0  0  0  0  0
    3.8642   -4.0422    0.1477 C   0  0  0  0  0  0  0  0  0  0  0  0
    2.9812   -3.8718    1.1964 C   0  0  0  0  0  0  0  0  0  0  0  0
    2.4620   -2.6195    1.5032 C   0  0  0  0  0  0  0  0  0  0  0  0
    1.5337   -2.4645    2.6714 C   0  0  0  0  0  0  0  0  0  0  0  0
    2.9442    0.7379    1.4749 O   0  0  0  0  0  0  0  0  0  0  0  0
    2.4499    5.5613    0.8874 H   0  0  0  0  0  0  0  0  0  0  0  0
    3.8034    5.2176   -1.1351 H   0  0  0  0  0  0  0  0  0  0  0  0
    3.5868    3.1107   -2.4126 H   0  0  0  0  0  0  0  0  0  0  0  0
    2.0379    1.3679   -1.6456 H   0  0  0  0  0  0  0  0  0  0  0  0
    0.0291    1.5262    1.4763 H   0  0  0  0  0  0  0  0  0  0  0  0
   -0.4232    1.4822   -1.5268 H   0  0  0  0  0  0  0  0  0  0  0  0
   -3.9751    4.5645   -0.8792 H   0  0  0  0  0  0  0  0  0  0  0  0
   -5.1105    3.8306    1.1740 H   0  0  0  0  0  0  0  0  0  0  0  0
   -4.2271    1.8975    2.4402 H   0  0  0  0  0  0  0  0  0  0  0  0
   -2.2387    0.7126    1.6328 H   0  0  0  0  0  0  0  0  0  0  0  0
   -3.4684   -1.4665    1.2288 H   0  0  0  0  0  0  0  0  0  0  0  0
   -3.2580   -2.9597    2.1545 H   0  0  0  0  0  0  0  0  0  0  0  0
   -1.8943   -1.8694    1.9184 H   0  0  0  0  0  0  0  0  0  0  0  0
   -2.6712   -4.9588    1.0309 H   0  0  0  0  0  0  0  0  0  0  0  0
   -2.1610   -6.1581   -1.0510 H   0  0  0  0  0  0  0  0  0  0  0  0
   -1.6942   -4.8958   -3.1227 H   0  0  0  0  0  0  0  0  0  0  0  0
   -1.6904   -2.4268   -3.0729 H   0  0  0  0  0  0  0  0  0  0  0  0
    0.0016   -1.7790    0.5671 H   0  0  0  0  0  0  0  0  0  0  0  0
    1.6703   -1.1882   -3.0444 H   0  0  0  0  0  0  0  0  0  0  0  0
    4.0626   -0.8355   -0.8903 H   0  0  0  0  0  0  0  0  0  0  0  0
    4.9692   -3.0764   -1.4141 H   0  0  0  0  0  0  0  0  0  0  0  0
    4.2488   -5.0254   -0.0775 H   0  0  0  0  0  0  0  0  0  0  0  0
    2.6844   -4.7215    1.7937 H   0  0  0  0  0  0  0  0  0  0  0  0
    1.2659   -1.4226    2.8323 H   0  0  0  0  0  0  0  0  0  0  0  0
    0.6296   -3.0561    2.5226 H   0  0  0  0  0  0  0  0  0  0  0  0
    2.0178   -2.8318    3.5752 H   0  0  0  0  0  0  0  0  0  0  0  0
  1  2  1  0  0  0  0
  2  3  1  0  0  0  0
  2  4  1  0  0  0  0
  2  5  1  0  0  0  0
  1  6  4  0  0  0  0
  6  7  4  0  0  0  0
  7  8  4  0  0  0  0
  8  9  4  0  0  0  0
  1 10  4  0  0  0  0
  9 10  4  0  0  0  0
 10 11  1  0  0  0  0
 11 12  1  0  0  0  0
 12 13  1  0  0  0  0
 13 14  4  0  0  0  0
 14 15  1  0  0  0  0
 15 16  1  0  0  0  0
 15 17  1  0  0  0  0
 15 18  1  0  0  0  0
 14 19  4  0  0  0  0
 19 20  4  0  0  0  0
 20 21  4  0  0  0  0
 13 22  4  0  0  0  0
 21 22  4  0  0  0  0
 12 23  1  0  0  0  0
 23 24  1  0  0  0  0
 24 25  1  0  0  0  0
 25 26  4  0  0  0  0
 26 27  1  0  0  0  0
 26 28  4  0  0  0  0
 28 29  4  0  0  0  0
 29 30  4  0  0  0  0
 25 31  4  0  0  0  0
 30 31  4  0  0  0  0
 24 32  2  0  0  0  0
 23 33  1  0  0  0  0
 33 34  1  0  0  0  0
 34 35  1  0  0  0  0
 34 36  2  0  0  0  0
 11 37  1  0  0  0  0
 33 37  1  0  0  0  0
 37 38  1  0  0  0  0
 38 39  1  0  0  0  0
 39 40  4  0  0  0  0
 40 41  4  0  0  0  0
 41 42  4  0  0  0  0
 42 43  4  0  0  0  0
 39 44  4  0  0  0  0
 43 44  4  0  0  0  0
 44 45  1  0  0  0  0
 38 46  2  0  0  0  0
  6 47  1  0  0  0  0
  7 48  1  0  0  0  0
  8 49  1  0  0  0  0
  9 50  1  0  0  0  0
 11 51  1  0  0  0  0
 12 52  1  0  0  0  0
 19 53  1  0  0  0  0
 20 54  1  0  0  0  0
 21 55  1  0  0  0  0
 22 56  1  0  0  0  0
 27 57  1  0  0  0  0
 27 58  1  0  0  0  0
 27 59  1  0  0  0  0
 28 60  1  0  0  0  0
 29 61  1  0  0  0  0
 30 62  1  0  0  0  0
 31 63  1  0  0  0  0
 33 64  1  0  0  0  0
 35 65  1  0  0  0  0
 40 66  1  0  0  0  0
 41 67  1  0  0  0  0
 42 68  1  0  0  0  0
 43 69  1  0  0  0  0
 45 70  1  0  0  0  0
 45 71  1  0  0  0  0
 45 72  1  0  0  0  0
M  END
