78

C      2.570721    1.382798   -0.750000
C      3.621219    2.058500   -1.379332
C      3.654478    3.459885   -1.420203
C      4.702930    4.150702   -2.053560
C      4.724091    5.546806   -2.084061
C      3.703752    6.270492   -1.476908
C      2.655733    5.597170   -0.841777
C      2.617195    4.192422   -0.805089
C      1.569761    3.501643   -0.168051
C      1.533223    2.096185   -0.133452
C      0.322212    1.411802    0.487793
C     -0.715783    1.129355   -0.639205
C     -1.991651    1.939533   -0.471225
C     -2.787410    1.875166    0.686690
C     -3.921731    2.692147    0.848918
C     -4.707622    2.631534    2.012819
C     -5.817289    3.465563    2.162869
C     -6.156150    4.369446    1.156618
C     -5.386433    4.439997   -0.006196
C     -4.269693    3.603961   -0.173240
C     -3.484687    3.660256   -1.332847
C     -2.363152    2.838129   -1.484756
N     -0.902163   -0.321301   -0.624198
C     -1.379337   -1.003485   -1.736041
C     -1.268698   -2.448083   -1.721974
C     -0.187532   -3.286479   -1.919298
C     -0.669073   -4.621617   -1.801825
C      0.120560   -5.870460   -1.933347
C     -2.027595   -4.505860   -1.572263
C     -3.120938   -5.486533   -1.390446
O     -2.393991   -3.195192   -1.513608
O     -1.809435   -0.396029   -2.713880
C     -0.294892   -0.919648    0.550813
C     -1.380963   -1.309702    1.602936
O     -2.589780   -1.604719    1.091119
O     -1.209137   -1.434050    2.806917
N      0.584227    0.105870    1.083935
C      1.568641   -0.084918    2.043500
C      2.083562   -1.430313    2.159030
C      1.683421   -2.559938    2.847686
C      2.570082   -3.612652    2.474224
C      2.534135   -5.024749    2.930195
C      3.488346   -3.034633    1.612872
C      4.679075   -3.544572    0.893970
O      3.188439   -1.726584    1.404869
O      2.092967    0.870575    2.615217
H      2.574645    0.294538   -0.747395
H      4.414826    1.476163   -1.843471
H      5.516618    3.599790   -2.521354
H      5.541385    6.069106   -2.576829
H      3.731276    7.357392   -1.490646
H      1.869193    6.177044   -0.364862
H      0.766251    4.065054    0.304533
H     -0.075705    2.043091    1.288718
H     -0.291138    1.369814   -1.627033
H     -2.522744    1.200589    1.495287
H     -4.461510    1.933753    2.812324
H     -6.413812    3.415265    3.069205
H     -7.015237    5.024989    1.281247
H     -5.660541    5.156039   -0.780911
H     -3.742612    4.352908   -2.132543
H     -1.777465    2.911147   -2.403572
H      0.830865   -2.975848   -2.122383
H     -0.036720   -6.531223   -1.072324
H      1.191627   -5.657981   -2.001265
H     -0.175792   -6.417010   -2.832978
H     -2.737737   -6.513151   -1.408872
H     -3.863358   -5.377455   -2.190787
H     -3.620600   -5.334885   -0.425568
H      0.271812   -1.818057    0.298809
H     -3.134888   -1.836794    1.877618
H      0.843540   -2.624886    3.530864
H      1.530953   -5.299868    3.278684
H      2.803210   -5.704276    2.113127
H      3.237235   -5.175150    3.755423
H      5.314479   -4.133007    1.564186
H      4.374402   -4.191682    0.059426
H      5.283904   -2.723827    0.487130
