
  xtb     03172200383D
 xtb: 6.3.3 (4ae9cef)
 80 86  0     0  0            999 V2000
   -5.1733   -1.2579   -0.3470 C   0  0  0  0  0  0  0  0  0  0  0  0
   -5.1014   -2.0242    0.7804 C   0  0  0  0  0  0  0  0  0  0  0  0
   -3.8743   -2.1750    1.4419 C   0  0  0  0  0  0  0  0  0  0  0  0
   -2.7536   -1.5432    0.9822 C   0  0  0  0  0  0  0  0  0  0  0  0
   -2.7899   -0.7321   -0.1736 C   0  0  0  0  0  0  0  0  0  0  0  0
   -4.0301   -0.6082   -0.8588 C   0  0  0  0  0  0  0  0  0  0  0  0
   -4.1051    0.1513   -2.0436 C   0  0  0  0  0  0  0  0  0  0  0  0
   -2.9936    0.7614   -2.5500 C   0  0  0  0  0  0  0  0  0  0  0  0
   -1.7760    0.6655   -1.8682 C   0  0  0  0  0  0  0  0  0  0  0  0
   -1.6630   -0.0401   -0.6946 C   0  0  0  0  0  0  0  0  0  0  0  0
   -0.3238   -0.0262    0.0013 C   0  0  0  0  0  0  0  0  0  0  0  0
    0.8031   -0.6909   -0.8414 C   0  0  0  0  0  0  0  0  0  0  0  0
    1.3978   -1.8860   -0.1276 C   0  0  0  0  0  0  0  0  0  0  0  0
    2.6410   -1.8181    0.4450 C   0  0  0  0  0  0  0  0  0  0  0  0
    3.1749   -2.8985    1.1617 C   0  0  0  0  0  0  0  0  0  0  0  0
    2.4513   -4.0446    1.3161 C   0  0  0  0  0  0  0  0  0  0  0  0
    1.1757   -4.1684    0.7273 C   0  0  0  0  0  0  0  0  0  0  0  0
    0.6416   -3.0865   -0.0250 C   0  0  0  0  0  0  0  0  0  0  0  0
   -0.6156   -3.2661   -0.6421 C   0  0  0  0  0  0  0  0  0  0  0  0
   -1.3206   -4.4275   -0.4889 C   0  0  0  0  0  0  0  0  0  0  0  0
   -0.8057   -5.4784    0.2825 C   0  0  0  0  0  0  0  0  0  0  0  0
    0.4218   -5.3523    0.8680 C   0  0  0  0  0  0  0  0  0  0  0  0
    1.7590    0.3789   -1.0697 N   0  0  0  0  0  0  0  0  0  0  0  0
    2.6516    0.3071   -2.0965 C   0  0  0  0  0  0  0  0  0  0  0  0
    3.5784    1.4739   -2.2034 C   0  0  0  0  0  0  0  0  0  0  0  0
    3.1426    2.6927   -2.7153 C   0  0  0  0  0  0  0  0  0  0  0  0
    4.0346    3.7425   -2.8102 C   0  0  0  0  0  0  0  0  0  0  0  0
    5.3499    3.5998   -2.3999 C   0  0  0  0  0  0  0  0  0  0  0  0
    5.7911    2.3793   -1.8999 C   0  0  0  0  0  0  0  0  0  0  0  0
    7.0562    2.1190   -1.4814 O   0  0  0  0  0  0  0  0  0  0  0  0
    8.0013    3.1609   -1.5028 C   0  0  0  0  0  0  0  0  0  0  0  0
    4.8937    1.3142   -1.8128 C   0  0  0  0  0  0  0  0  0  0  0  0
    2.6788   -0.6517   -2.8373 O   0  0  0  0  0  0  0  0  0  0  0  0
    1.5351    1.4717   -0.1624 C   0  0  0  0  0  0  0  0  0  0  0  0
    2.4469    1.3754    1.0797 C   0  0  0  0  0  0  0  0  0  0  0  0
    1.7937    0.9316    2.1510 O   0  0  0  0  0  0  0  0  0  0  0  0
    3.6111    1.6581    1.0779 O   0  0  0  0  0  0  0  0  0  0  0  0
    0.1452    1.3395    0.1876 N   0  0  0  0  0  0  0  0  0  0  0  0
   -0.5553    2.4162    0.6280 C   0  0  0  0  0  0  0  0  0  0  0  0
   -1.9605    2.1391    1.0510 C   0  0  0  0  0  0  0  0  0  0  0  0
   -2.2074    1.3533    2.1619 C   0  0  0  0  0  0  0  0  0  0  0  0
   -3.5174    1.0951    2.5665 C   0  0  0  0  0  0  0  0  0  0  0  0
   -3.6495    0.2976    3.6604 O   0  0  0  0  0  0  0  0  0  0  0  0
   -4.9460   -0.0230    4.1042 C   0  0  0  0  0  0  0  0  0  0  0  0
   -4.5729    1.6403    1.8449 C   0  0  0  0  0  0  0  0  0  0  0  0
   -4.3133    2.4520    0.7525 C   0  0  0  0  0  0  0  0  0  0  0  0
   -3.0184    2.7164    0.3561 C   0  0  0  0  0  0  0  0  0  0  0  0
   -0.0521    3.5216    0.6628 O   0  0  0  0  0  0  0  0  0  0  0  0
   -6.1092   -1.1420   -0.8748 H   0  0  0  0  0  0  0  0  0  0  0  0
   -5.9802   -2.5240    1.1621 H   0  0  0  0  0  0  0  0  0  0  0  0
   -3.8172   -2.7949    2.3242 H   0  0  0  0  0  0  0  0  0  0  0  0
   -1.8278   -1.6895    1.5147 H   0  0  0  0  0  0  0  0  0  0  0  0
   -5.0571    0.2327   -2.5477 H   0  0  0  0  0  0  0  0  0  0  0  0
   -3.0450    1.3291   -3.4668 H   0  0  0  0  0  0  0  0  0  0  0  0
   -0.9104    1.1759   -2.2661 H   0  0  0  0  0  0  0  0  0  0  0  0
   -0.3761   -0.5222    0.9746 H   0  0  0  0  0  0  0  0  0  0  0  0
    0.4383   -1.0114   -1.8244 H   0  0  0  0  0  0  0  0  0  0  0  0
    3.2400   -0.9261    0.3410 H   0  0  0  0  0  0  0  0  0  0  0  0
    4.1605   -2.8061    1.5931 H   0  0  0  0  0  0  0  0  0  0  0  0
    2.8462   -4.8768    1.8809 H   0  0  0  0  0  0  0  0  0  0  0  0
   -1.0297   -2.4817   -1.2542 H   0  0  0  0  0  0  0  0  0  0  0  0
   -2.2823   -4.5388   -0.9677 H   0  0  0  0  0  0  0  0  0  0  0  0
   -1.3782   -6.3869    0.3976 H   0  0  0  0  0  0  0  0  0  0  0  0
    0.8404   -6.1621    1.4486 H   0  0  0  0  0  0  0  0  0  0  0  0
    2.1219    2.8113   -3.0482 H   0  0  0  0  0  0  0  0  0  0  0  0
    3.7055    4.6920   -3.2060 H   0  0  0  0  0  0  0  0  0  0  0  0
    6.0176    4.4430   -2.4790 H   0  0  0  0  0  0  0  0  0  0  0  0
    8.9221    2.7311   -1.1115 H   0  0  0  0  0  0  0  0  0  0  0  0
    7.6928    3.9956   -0.8653 H   0  0  0  0  0  0  0  0  0  0  0  0
    8.1777    3.5247   -2.5204 H   0  0  0  0  0  0  0  0  0  0  0  0
    5.2467    0.3705   -1.4291 H   0  0  0  0  0  0  0  0  0  0  0  0
    1.7334    2.4485   -0.6247 H   0  0  0  0  0  0  0  0  0  0  0  0
    2.3831    0.8987    2.9225 H   0  0  0  0  0  0  0  0  0  0  0  0
   -1.3978    0.9319    2.7370 H   0  0  0  0  0  0  0  0  0  0  0  0
   -4.8091   -0.6719    4.9679 H   0  0  0  0  0  0  0  0  0  0  0  0
   -5.4994    0.8709    4.4090 H   0  0  0  0  0  0  0  0  0  0  0  0
   -5.5101   -0.5576    3.3333 H   0  0  0  0  0  0  0  0  0  0  0  0
   -5.5961    1.4471    2.1248 H   0  0  0  0  0  0  0  0  0  0  0  0
   -5.1404    2.8820    0.2079 H   0  0  0  0  0  0  0  0  0  0  0  0
   -2.8176    3.3515   -0.4921 H   0  0  0  0  0  0  0  0  0  0  0  0
  1  2  2  0  0  0  0
  2  3  4  0  0  0  0
  3  4  2  0  0  0  0
  4  5  4  0  0  0  0
  1  6  4  0  0  0  0
  5  6  4  0  0  0  0
  6  7  4  0  0  0  0
  7  8  2  0  0  0  0
  8  9  4  0  0  0  0
  5 10  4  0  0  0  0
  9 10  2  0  0  0  0
 10 11  1  0  0  0  0
 11 12  1  0  0  0  0
 12 13  1  0  0  0  0
 13 14  2  0  0  0  0
 14 15  4  0  0  0  0
 15 16  2  0  0  0  0
 16 17  4  0  0  0  0
 13 18  4  0  0  0  0
 17 18  4  0  0  0  0
 18 19  4  0  0  0  0
 19 20  2  0  0  0  0
 20 21  4  0  0  0  0
 17 22  4  0  0  0  0
 21 22  2  0  0  0  0
 12 23  1  0  0  0  0
 23 24  1  0  0  0  0
 24 25  1  0  0  0  0
 25 26  4  0  0  0  0
 26 27  4  0  0  0  0
 27 28  4  0  0  0  0
 28 29  4  0  0  0  0
 29 30  1  0  0  0  0
 30 31  1  0  0  0  0
 25 32  4  0  0  0  0
 29 32  4  0  0  0  0
 24 33  2  0  0  0  0
 23 34  1  0  0  0  0
 34 35  1  0  0  0  0
 35 36  1  0  0  0  0
 35 37  2  0  0  0  0
 11 38  1  0  0  0  0
 34 38  1  0  0  0  0
 38 39  4  0  0  0  0
 39 40  1  0  0  0  0
 40 41  4  0  0  0  0
 41 42  4  0  0  0  0
 42 43  1  0  0  0  0
 43 44  1  0  0  0  0
 42 45  4  0  0  0  0
 45 46  4  0  0  0  0
 40 47  4  0  0  0  0
 46 47  4  0  0  0  0
 39 48  2  0  0  0  0
  1 49  1  0  0  0  0
  2 50  1  0  0  0  0
  3 51  1  0  0  0  0
  4 52  1  0  0  0  0
  7 53  1  0  0  0  0
  8 54  1  0  0  0  0
  9 55  1  0  0  0  0
 11 56  1  0  0  0  0
 12 57  1  0  0  0  0
 14 58  1  0  0  0  0
 15 59  1  0  0  0  0
 16 60  1  0  0  0  0
 19 61  1  0  0  0  0
 20 62  1  0  0  0  0
 21 63  1  0  0  0  0
 22 64  1  0  0  0  0
 26 65  1  0  0  0  0
 27 66  1  0  0  0  0
 28 67  1  0  0  0  0
 31 68  1  0  0  0  0
 31 69  1  0  0  0  0
 31 70  1  0  0  0  0
 32 71  1  0  0  0  0
 34 72  1  0  0  0  0
 36 73  1  0  0  0  0
 41 74  1  0  0  0  0
 44 75  1  0  0  0  0
 44 76  1  0  0  0  0
 44 77  1  0  0  0  0
 45 78  1  0  0  0  0
 46 79  1  0  0  0  0
 47 80  1  0  0  0  0
M  END
