64

C      1.008738   -3.709687    1.284936
C      1.474395   -4.211045   -0.069518
F      1.771791   -5.541747   -0.088091
F      2.586855   -3.580618   -0.529633
F      0.530129   -4.042999   -1.036497
C      1.088408   -4.596769    2.379229
C      0.680003   -4.211991    3.653096
C      0.188829   -2.931487    3.858254
C      0.106678   -2.035596    2.792496
C      0.509515   -2.395634    1.492594
C      0.395520   -1.381440    0.354356
C     -1.073249   -0.976489    0.036631
C     -1.685150   -1.841363   -1.063125
C     -1.437231   -1.707169   -2.453312
C     -0.548286   -0.645694   -3.060581
F     -0.136232   -0.938744   -4.328100
F      0.602019   -0.419039   -2.363989
F     -1.158561    0.569253   -3.154834
C     -2.081623   -2.591894   -3.346511
C     -2.929303   -3.599213   -2.891717
C     -3.160453   -3.741432   -1.531691
C     -2.547808   -2.873840   -0.630273
N     -1.011371    0.452236   -0.254069
C     -2.178398    1.186773   -0.475830
C     -2.044860    2.599913   -0.783168
C     -1.183052    3.314741   -1.602673
C     -1.549114    4.681963   -1.504708
C     -2.623003    4.708436   -0.648513
N     -3.431977    5.787171   -0.174036
O     -3.131827    6.914645   -0.589898
O     -4.355287    5.522658    0.604231
O     -2.939516    3.465491   -0.205609
O     -3.278190    0.642897   -0.419031
C      0.210000    1.033334    0.298143
C     -0.109473    1.776040    1.636807
O      0.135116    3.108053    1.629086
O     -0.585386    1.232587    2.624893
N      1.089597   -0.104244    0.588468
C      2.477899   -0.090514    0.712192
C      3.208422    1.168973    0.733315
C      4.562316    1.409616    0.934866
C      4.774262    2.809284    0.811106
C      3.536373    3.326942    0.534661
N      3.062134    4.644786    0.267499
O      1.842501    4.753181    0.047875
O      3.896132    5.555185    0.265311
O      2.585032    2.358581    0.490567
O      3.099976   -1.148767    0.793205
H      1.477445   -5.605327    2.240304
H      0.749497   -4.909433    4.483706
H     -0.128626   -2.620458    4.850832
H     -0.282919   -1.043605    3.002113
H      0.873118   -1.789610   -0.540764
H     -1.700639   -1.052688    0.935331
H     -1.920887   -2.499155   -4.420357
H     -3.407579   -4.271906   -3.598234
H     -3.822997   -4.524612   -1.170119
H     -2.758021   -3.008448    0.430892
H     -0.402978    2.897768   -2.226287
H     -1.106397    5.531518   -2.007337
H      0.652736    1.689146   -0.449888
H      0.525660    3.500320    0.818028
H      5.304728    0.646336    1.135406
H      5.704573    3.354835    0.897966
