60

C     -2.715628    1.898237   -0.835660
C     -2.216558    2.242763   -2.223843
F     -2.189400    1.160977   -3.047007
F     -0.949389    2.739250   -2.203211
F     -2.968064    3.179604   -2.865125
C     -3.911978    2.499664   -0.393382
C     -4.432851    2.228471    0.868310
C     -3.769287    1.349885    1.710921
C     -2.584518    0.742590    1.293734
C     -2.030693    0.997784    0.022400
C     -0.726938    0.313499   -0.393117
C      0.522626    0.758467    0.428252
C      1.417017    1.736085   -0.329415
C      1.619228    3.068845    0.109336
C      0.930398    3.629816    1.334444
F     -0.425396    3.532348    1.238259
F      1.190042    4.944953    1.566296
F      1.264554    2.974886    2.478089
C      2.476694    3.910553   -0.626449
C      3.117369    3.459042   -1.778337
C      2.911880    2.157927   -2.218431
C      2.072456    1.305083   -1.503299
N      1.208810   -0.507559    0.689820
C      2.399155   -0.589883    1.381695
C      3.218821   -1.768714    1.190094
C      3.342911   -2.523845    0.039692
O      4.209654   -3.550733    0.226787
C      4.683713   -3.442975    1.493724
C      4.122396   -2.356844    2.121920
O      2.686181    0.277176    2.202133
C      0.254899   -1.599392    0.659791
C     -0.354991   -1.947486    2.060451
O      0.056305   -1.187452    3.104813
O     -1.198633   -2.819737    2.229241
N     -0.818409   -1.151292   -0.223241
C     -0.875432   -1.897824   -1.400859
C     -1.768528   -3.039421   -1.371025
C     -1.799288   -4.021660   -2.342122
O     -2.726154   -4.968019   -2.048906
C     -3.316348   -4.590949   -0.887756
C     -2.773220   -3.412345   -0.433274
O     -0.179769   -1.626152   -2.375026
H     -4.450946    3.193109   -1.038626
H     -5.357445    2.700529    1.191439
H     -4.173494    1.128733    2.695589
H     -2.111204    0.056753    1.988849
H     -0.554094    0.508594   -1.453120
H      0.232185    1.156745    1.404592
H      2.648681    4.937100   -0.301831
H      3.773351    4.124215   -2.334173
H      3.404190    1.804733   -3.121077
H      1.930996    0.292296   -1.881150
H      2.908062   -2.464636   -0.949921
H      5.402050   -4.194576    1.790929
H      4.329037   -2.027365    3.131934
H      0.730697   -2.516127    0.296704
H      0.716622   -0.483657    2.935019
H     -1.237436   -4.182832   -3.251173
H     -4.091199   -5.249914   -0.518897
H     -3.073692   -2.889324    0.464193
