
  xtb     03172201573D
 xtb: 6.3.3 (4ae9cef)
 60 64  0     0  0            999 V2000
   -2.5867    2.2834   -0.8020 C   0  0  0  0  0  0  0  0  0  0  0  0
   -1.8832    2.8064   -2.0260 C   0  0  0  0  0  0  0  0  0  0  0  0
   -1.6829    1.8914   -2.9868 F   0  0  0  0  0  0  0  0  0  0  0  0
   -0.6581    3.3043   -1.7399 F   0  0  0  0  0  0  0  0  0  0  0  0
   -2.5444    3.8104   -2.6161 F   0  0  0  0  0  0  0  0  0  0  0  0
   -3.7271    2.9589   -0.3822 C   0  0  0  0  0  0  0  0  0  0  0  0
   -4.4155    2.5463    0.7425 C   0  0  0  0  0  0  0  0  0  0  0  0
   -3.9656    1.4487    1.4527 C   0  0  0  0  0  0  0  0  0  0  0  0
   -2.8293    0.7785    1.0399 C   0  0  0  0  0  0  0  0  0  0  0  0
   -2.1162    1.1800   -0.0836 C   0  0  0  0  0  0  0  0  0  0  0  0
   -0.8729    0.4154   -0.4723 C   0  0  0  0  0  0  0  0  0  0  0  0
    0.3731    0.8195    0.3607 C   0  0  0  0  0  0  0  0  0  0  0  0
    1.2932    1.7642   -0.3634 C   0  0  0  0  0  0  0  0  0  0  0  0
    1.5884    3.0403    0.1155 C   0  0  0  0  0  0  0  0  0  0  0  0
    0.9707    3.5423    1.3894 C   0  0  0  0  0  0  0  0  0  0  0  0
   -0.3810    3.5754    1.3293 F   0  0  0  0  0  0  0  0  0  0  0  0
    1.3531    4.7792    1.7134 F   0  0  0  0  0  0  0  0  0  0  0  0
    1.2583    2.7726    2.4607 F   0  0  0  0  0  0  0  0  0  0  0  0
    2.4413    3.8772   -0.5918 C   0  0  0  0  0  0  0  0  0  0  0  0
    3.0071    3.4498   -1.7775 C   0  0  0  0  0  0  0  0  0  0  0  0
    2.7192    2.1860   -2.2620 C   0  0  0  0  0  0  0  0  0  0  0  0
    1.8687    1.3545   -1.5602 C   0  0  0  0  0  0  0  0  0  0  0  0
    1.0259   -0.4675    0.6125 N   0  0  0  0  0  0  0  0  0  0  0  0
    2.3645   -0.6232    0.8487 C   0  0  0  0  0  0  0  0  0  0  0  0
    2.8288   -2.0292    0.9070 C   0  0  0  0  0  0  0  0  0  0  0  0
    2.7248   -3.0031   -0.0500 C   0  0  0  0  0  0  0  0  0  0  0  0
    3.3510   -4.1161    0.3440 O   0  0  0  0  0  0  0  0  0  0  0  0
    3.8666   -3.8788    1.5595 C   0  0  0  0  0  0  0  0  0  0  0  0
    3.5900   -2.6098    1.9599 C   0  0  0  0  0  0  0  0  0  0  0  0
    3.1054    0.3208    1.0094 O   0  0  0  0  0  0  0  0  0  0  0  0
   -0.0044   -1.4693    0.7064 C   0  0  0  0  0  0  0  0  0  0  0  0
   -0.5564   -1.5689    2.1671 C   0  0  0  0  0  0  0  0  0  0  0  0
    0.1613   -0.9656    3.1034 O   0  0  0  0  0  0  0  0  0  0  0  0
   -1.5474   -2.1869    2.4237 O   0  0  0  0  0  0  0  0  0  0  0  0
   -1.0049   -1.0229   -0.2296 N   0  0  0  0  0  0  0  0  0  0  0  0
   -1.5898   -1.7716   -1.2235 C   0  0  0  0  0  0  0  0  0  0  0  0
   -1.4657   -3.2355   -1.1371 C   0  0  0  0  0  0  0  0  0  0  0  0
   -1.3274   -4.0428   -2.2376 C   0  0  0  0  0  0  0  0  0  0  0  0
   -1.2715   -5.3257   -1.8807 O   0  0  0  0  0  0  0  0  0  0  0  0
   -1.4008   -5.3735   -0.5434 C   0  0  0  0  0  0  0  0  0  0  0  0
   -1.5196   -4.1241   -0.0227 C   0  0  0  0  0  0  0  0  0  0  0  0
   -2.1664   -1.2231   -2.1374 O   0  0  0  0  0  0  0  0  0  0  0  0
   -4.0774    3.8110   -0.9431 H   0  0  0  0  0  0  0  0  0  0  0  0
   -5.2991    3.0794    1.0562 H   0  0  0  0  0  0  0  0  0  0  0  0
   -4.4952    1.1090    2.3291 H   0  0  0  0  0  0  0  0  0  0  0  0
   -2.5034   -0.0862    1.5940 H   0  0  0  0  0  0  0  0  0  0  0  0
   -0.6800    0.5444   -1.5418 H   0  0  0  0  0  0  0  0  0  0  0  0
    0.0261    1.2421    1.3100 H   0  0  0  0  0  0  0  0  0  0  0  0
    2.6593    4.8621   -0.2098 H   0  0  0  0  0  0  0  0  0  0  0  0
    3.6701    4.1042   -2.3211 H   0  0  0  0  0  0  0  0  0  0  0  0
    3.1554    1.8463   -3.1886 H   0  0  0  0  0  0  0  0  0  0  0  0
    1.6520    0.3665   -1.9400 H   0  0  0  0  0  0  0  0  0  0  0  0
    2.2778   -3.0044   -1.0254 H   0  0  0  0  0  0  0  0  0  0  0  0
    4.4045   -4.6758    2.0319 H   0  0  0  0  0  0  0  0  0  0  0  0
    3.8757   -2.1321    2.8734 H   0  0  0  0  0  0  0  0  0  0  0  0
    0.3561   -2.4716    0.4460 H   0  0  0  0  0  0  0  0  0  0  0  0
    0.9220   -0.4632    2.7671 H   0  0  0  0  0  0  0  0  0  0  0  0
   -1.2464   -3.7982   -3.2777 H   0  0  0  0  0  0  0  0  0  0  0  0
   -1.3948   -6.3406   -0.0822 H   0  0  0  0  0  0  0  0  0  0  0  0
   -1.6772   -3.8606    1.0021 H   0  0  0  0  0  0  0  0  0  0  0  0
  1  2  1  0  0  0  0
  2  3  1  0  0  0  0
  2  4  1  0  0  0  0
  2  5  1  0  0  0  0
  1  6  4  0  0  0  0
  6  7  4  0  0  0  0
  7  8  4  0  0  0  0
  8  9  4  0  0  0  0
  1 10  4  0  0  0  0
  9 10  4  0  0  0  0
 10 11  1  0  0  0  0
 11 12  1  0  0  0  0
 12 13  1  0  0  0  0
 13 14  4  0  0  0  0
 14 15  1  0  0  0  0
 15 16  1  0  0  0  0
 15 17  1  0  0  0  0
 15 18  1  0  0  0  0
 14 19  4  0  0  0  0
 19 20  4  0  0  0  0
 20 21  4  0  0  0  0
 13 22  4  0  0  0  0
 21 22  4  0  0  0  0
 12 23  1  0  0  0  0
 23 24  1  0  0  0  0
 24 25  1  0  0  0  0
 25 26  2  0  0  0  0
 26 27  1  0  0  0  0
 27 28  1  0  0  0  0
 25 29  4  0  0  0  0
 28 29  2  0  0  0  0
 24 30  2  0  0  0  0
 23 31  1  0  0  0  0
 31 32  1  0  0  0  0
 32 33  1  0  0  0  0
 32 34  2  0  0  0  0
 11 35  1  0  0  0  0
 31 35  1  0  0  0  0
 35 36  1  0  0  0  0
 36 37  1  0  0  0  0
 37 38  2  0  0  0  0
 38 39  1  0  0  0  0
 39 40  1  0  0  0  0
 37 41  4  0  0  0  0
 40 41  2  0  0  0  0
 36 42  2  0  0  0  0
  6 43  1  0  0  0  0
  7 44  1  0  0  0  0
  8 45  1  0  0  0  0
  9 46  1  0  0  0  0
 11 47  1  0  0  0  0
 12 48  1  0  0  0  0
 19 49  1  0  0  0  0
 20 50  1  0  0  0  0
 21 51  1  0  0  0  0
 22 52  1  0  0  0  0
 26 53  1  0  0  0  0
 28 54  1  0  0  0  0
 29 55  1  0  0  0  0
 31 56  1  0  0  0  0
 33 57  1  0  0  0  0
 38 58  1  0  0  0  0
 40 59  1  0  0  0  0
 41 60  1  0  0  0  0
M  END
