
  xtb     03172202103D
 xtb: 6.3.3 (4ae9cef)
 72 78  0     0  0            999 V2000
    3.9279    3.0862   -2.6303 C   0  0  0  0  0  0  0  0  0  0  0  0
    4.7694    3.0645   -1.5555 C   0  0  0  0  0  0  0  0  0  0  0  0
    4.2956    2.6243   -0.3127 C   0  0  0  0  0  0  0  0  0  0  0  0
    3.0026    2.2050   -0.1633 C   0  0  0  0  0  0  0  0  0  0  0  0
    2.1069    2.1985   -1.2549 C   0  0  0  0  0  0  0  0  0  0  0  0
    2.5882    2.6623   -2.5120 C   0  0  0  0  0  0  0  0  0  0  0  0
    1.7269    2.6955   -3.6281 C   0  0  0  0  0  0  0  0  0  0  0  0
    0.4296    2.2934   -3.5131 C   0  0  0  0  0  0  0  0  0  0  0  0
   -0.0504    1.8183   -2.2814 C   0  0  0  0  0  0  0  0  0  0  0  0
    0.7541    1.7598   -1.1629 C   0  0  0  0  0  0  0  0  0  0  0  0
    0.2357    1.1725    0.1368 C   0  0  0  0  0  0  0  0  0  0  0  0
   -1.2877    0.9798    0.2131 C   0  0  0  0  0  0  0  0  0  0  0  0
   -1.7539    0.9709    1.6524 C   0  0  0  0  0  0  0  0  0  0  0  0
   -2.1442   -0.1866    2.2718 C   0  0  0  0  0  0  0  0  0  0  0  0
   -2.5420   -0.1970    3.6162 C   0  0  0  0  0  0  0  0  0  0  0  0
   -2.5450    0.9599    4.3383 C   0  0  0  0  0  0  0  0  0  0  0  0
   -2.1630    2.1783    3.7392 C   0  0  0  0  0  0  0  0  0  0  0  0
   -1.7624    2.1956    2.3759 C   0  0  0  0  0  0  0  0  0  0  0  0
   -1.3967    3.4351    1.8051 C   0  0  0  0  0  0  0  0  0  0  0  0
   -1.4208    4.5855    2.5442 C   0  0  0  0  0  0  0  0  0  0  0  0
   -1.8098    4.5631    3.8907 C   0  0  0  0  0  0  0  0  0  0  0  0
   -2.1749    3.3829    4.4728 C   0  0  0  0  0  0  0  0  0  0  0  0
   -1.4457   -0.3040   -0.4597 N   0  0  0  0  0  0  0  0  0  0  0  0
   -2.5776   -0.6196   -1.1403 C   0  0  0  0  0  0  0  0  0  0  0  0
   -2.5629   -1.9770   -1.7751 C   0  0  0  0  0  0  0  0  0  0  0  0
   -2.4511   -2.1129   -3.1534 C   0  0  0  0  0  0  0  0  0  0  0  0
   -2.2342   -0.5698   -4.2352 Br  0  0  0  0  0  0  0  0  0  0  0  0
   -2.4658   -3.3581   -3.7550 C   0  0  0  0  0  0  0  0  0  0  0  0
   -2.6130   -4.4865   -2.9691 C   0  0  0  0  0  0  0  0  0  0  0  0
   -2.7521   -4.3685   -1.5962 C   0  0  0  0  0  0  0  0  0  0  0  0
   -2.7291   -3.1201   -1.0030 C   0  0  0  0  0  0  0  0  0  0  0  0
   -3.5069    0.1505   -1.2347 O   0  0  0  0  0  0  0  0  0  0  0  0
   -0.2718   -1.1312   -0.2768 C   0  0  0  0  0  0  0  0  0  0  0  0
    0.2244   -1.8237   -1.5791 C   0  0  0  0  0  0  0  0  0  0  0  0
    0.4769   -1.0522   -2.6124 O   0  0  0  0  0  0  0  0  0  0  0  0
    0.3788   -3.0143   -1.5991 O   0  0  0  0  0  0  0  0  0  0  0  0
    0.7013   -0.2125    0.2825 N   0  0  0  0  0  0  0  0  0  0  0  0
    1.5564   -0.5729    1.2831 C   0  0  0  0  0  0  0  0  0  0  0  0
    1.8906   -2.0317    1.2776 C   0  0  0  0  0  0  0  0  0  0  0  0
    1.3838   -2.8840    2.2498 C   0  0  0  0  0  0  0  0  0  0  0  0
    1.7036   -4.2303    2.2307 C   0  0  0  0  0  0  0  0  0  0  0  0
    2.5402   -4.7306    1.2466 C   0  0  0  0  0  0  0  0  0  0  0  0
    3.0724   -3.8889    0.2861 C   0  0  0  0  0  0  0  0  0  0  0  0
    2.7439   -2.5456    0.3086 C   0  0  0  0  0  0  0  0  0  0  0  0
    3.4992   -1.3781   -0.9939 Br  0  0  0  0  0  0  0  0  0  0  0  0
    2.0407    0.2207    2.0572 O   0  0  0  0  0  0  0  0  0  0  0  0
    4.2734    3.4281   -3.5951 H   0  0  0  0  0  0  0  0  0  0  0  0
    5.7953    3.3863   -1.6540 H   0  0  0  0  0  0  0  0  0  0  0  0
    4.9610    2.6142    0.5373 H   0  0  0  0  0  0  0  0  0  0  0  0
    2.6841    1.8684    0.8085 H   0  0  0  0  0  0  0  0  0  0  0  0
    2.1137    3.0499   -4.5716 H   0  0  0  0  0  0  0  0  0  0  0  0
   -0.2435    2.3176   -4.3556 H   0  0  0  0  0  0  0  0  0  0  0  0
   -1.0920    1.5375   -2.2442 H   0  0  0  0  0  0  0  0  0  0  0  0
    0.6087    1.7381    0.9939 H   0  0  0  0  0  0  0  0  0  0  0  0
   -1.8598    1.7296   -0.3386 H   0  0  0  0  0  0  0  0  0  0  0  0
   -2.1669   -1.1181    1.7255 H   0  0  0  0  0  0  0  0  0  0  0  0
   -2.8425   -1.1305    4.0688 H   0  0  0  0  0  0  0  0  0  0  0  0
   -2.8435    0.9622    5.3764 H   0  0  0  0  0  0  0  0  0  0  0  0
   -1.0980    3.4866    0.7696 H   0  0  0  0  0  0  0  0  0  0  0  0
   -1.1390    5.5232    2.0886 H   0  0  0  0  0  0  0  0  0  0  0  0
   -1.8216    5.4818    4.4578 H   0  0  0  0  0  0  0  0  0  0  0  0
   -2.4823    3.3513    5.5082 H   0  0  0  0  0  0  0  0  0  0  0  0
   -2.3585   -3.4393   -4.8257 H   0  0  0  0  0  0  0  0  0  0  0  0
   -2.6203   -5.4603   -3.4336 H   0  0  0  0  0  0  0  0  0  0  0  0
   -2.8743   -5.2497   -0.9861 H   0  0  0  0  0  0  0  0  0  0  0  0
   -2.8479   -3.0238    0.0664 H   0  0  0  0  0  0  0  0  0  0  0  0
   -0.4558   -1.9595    0.4294 H   0  0  0  0  0  0  0  0  0  0  0  0
    0.3653   -0.0844   -2.4563 H   0  0  0  0  0  0  0  0  0  0  0  0
    0.7380   -2.4790    3.0156 H   0  0  0  0  0  0  0  0  0  0  0  0
    1.2998   -4.8881    2.9848 H   0  0  0  0  0  0  0  0  0  0  0  0
    2.7868   -5.7809    1.2269 H   0  0  0  0  0  0  0  0  0  0  0  0
    3.7317   -4.2677   -0.4787 H   0  0  0  0  0  0  0  0  0  0  0  0
  1  2  2  0  0  0  0
  2  3  4  0  0  0  0
  3  4  2  0  0  0  0
  4  5  4  0  0  0  0
  1  6  4  0  0  0  0
  5  6  4  0  0  0  0
  6  7  4  0  0  0  0
  7  8  2  0  0  0  0
  8  9  4  0  0  0  0
  5 10  4  0  0  0  0
  9 10  2  0  0  0  0
 10 11  1  0  0  0  0
 11 12  1  0  0  0  0
 12 13  1  0  0  0  0
 13 14  2  0  0  0  0
 14 15  4  0  0  0  0
 15 16  2  0  0  0  0
 16 17  4  0  0  0  0
 13 18  4  0  0  0  0
 17 18  4  0  0  0  0
 18 19  4  0  0  0  0
 19 20  2  0  0  0  0
 20 21  4  0  0  0  0
 17 22  4  0  0  0  0
 21 22  2  0  0  0  0
 12 23  1  0  0  0  0
 23 24  4  0  0  0  0
 24 25  1  0  0  0  0
 25 26  4  0  0  0  0
 26 27  1  0  0  0  0
 26 28  4  0  0  0  0
 28 29  4  0  0  0  0
 29 30  4  0  0  0  0
 25 31  4  0  0  0  0
 30 31  4  0  0  0  0
 24 32  2  0  0  0  0
 23 33  1  0  0  0  0
 33 34  1  0  0  0  0
 34 35  4  0  0  0  0
 34 36  2  0  0  0  0
 11 37  1  0  0  0  0
 33 37  1  0  0  0  0
 37 38  1  0  0  0  0
 38 39  1  0  0  0  0
 39 40  4  0  0  0  0
 40 41  4  0  0  0  0
 41 42  4  0  0  0  0
 42 43  4  0  0  0  0
 39 44  4  0  0  0  0
 43 44  4  0  0  0  0
 44 45  1  0  0  0  0
 38 46  2  0  0  0  0
  1 47  1  0  0  0  0
  2 48  1  0  0  0  0
  3 49  1  0  0  0  0
  4 50  1  0  0  0  0
  7 51  1  0  0  0  0
  8 52  1  0  0  0  0
  9 53  1  0  0  0  0
 11 54  1  0  0  0  0
 12 55  1  0  0  0  0
 14 56  1  0  0  0  0
 15 57  1  0  0  0  0
 16 58  1  0  0  0  0
 19 59  1  0  0  0  0
 20 60  1  0  0  0  0
 21 61  1  0  0  0  0
 22 62  1  0  0  0  0
 28 63  1  0  0  0  0
 29 64  1  0  0  0  0
 30 65  1  0  0  0  0
 31 66  1  0  0  0  0
 33 67  1  0  0  0  0
 35 68  1  0  0  0  0
 40 69  1  0  0  0  0
 41 70  1  0  0  0  0
 42 71  1  0  0  0  0
 43 72  1  0  0  0  0
M  END
