66

C     -1.535665   -3.347493   -0.919829
C     -2.024385   -4.114545   -1.979364
C     -2.274557   -3.518313   -3.213515
C     -2.031569   -2.156367   -3.387614
C     -1.539615   -1.388828   -2.329294
C     -1.288687   -1.971888   -1.077940
C     -0.730522   -1.182466    0.095011
C      0.745624   -0.773676   -0.122829
C      1.630941   -1.303620    1.000503
C      1.501230   -0.853419    2.324910
C      2.333244   -1.348285    3.329433
C      3.303436   -2.300072    3.025896
C      3.440283   -2.762622    1.720912
C      2.608489   -2.269990    0.714126
N      0.721791    0.690613   -0.167652
C      1.813603    1.526715   -0.275551
C      3.016723    0.964656   -0.862980
C      4.244575    0.889492   -0.228987
C      4.734481    1.293573    1.104538
O      5.162462    0.306917   -1.048411
C      4.539188    0.036886   -2.220241
C      3.218326    0.432098   -2.180733
C      2.244837    0.350889   -3.299022
O      1.764652    2.699057    0.084781
C     -0.562743    1.229172    0.244320
C     -1.057389    2.247668   -0.816575
O     -1.289516    3.470578   -0.291885
O     -1.239448    2.043707   -2.008380
N     -1.444304    0.069168    0.344897
C     -2.652095    0.042469    1.016812
C     -3.300168    1.318236    1.239922
C     -4.207306    1.893333    0.368075
C     -4.772792    1.472697   -0.932584
O     -4.638178    3.087272    0.859403
C     -4.036225    3.262530    2.062203
C     -3.208705    2.199293    2.362848
C     -2.405992    2.025862    3.596563
O     -3.174289   -0.997360    1.405638
H     -1.355270   -3.832414    0.039727
H     -2.217638   -5.175383   -1.836520
H     -2.661926   -4.112502   -4.036697
H     -2.230174   -1.685751   -4.348392
H     -1.358465   -0.330382   -2.501411
H     -0.835877   -1.801518    0.996842
H      1.127393   -1.136653   -1.082348
H      0.755086   -0.109881    2.593674
H      2.225841   -0.988225    4.349438
H      3.951437   -2.680791    3.809560
H      4.199909   -3.502806    1.481464
H      2.743598   -2.636474   -0.301438
H      3.907343    1.530195    1.780090
H      5.323740    0.491042    1.560749
H      5.366289    2.180971    1.014314
H      5.160492   -0.413012   -2.982252
H      1.252053    0.689176   -2.991997
H      2.158640   -0.678731   -3.662519
H      2.574182    0.988633   -4.128904
H     -0.456622    1.711618    1.221583
H     -1.586982    4.026666   -1.039622
H     -5.144929    2.332835   -1.497187
H     -5.602293    0.777864   -0.777190
H     -4.016846    0.970351   -1.542725
H     -4.301025    4.172494    2.583386
H     -1.971122    1.022400    3.653708
H     -1.588487    2.752433    3.621882
H     -3.028078    2.173909    4.485378
