72

C     -2.351226   -1.773049    1.493257
C     -1.747068   -1.868409    2.885931
F     -0.731355   -2.774296    2.936969
F     -1.209001   -0.688848    3.309066
F     -2.630512   -2.242447    3.854089
C     -3.648346   -2.291470    1.300526
C     -4.245428   -2.281470    0.042604
C     -3.561591   -1.746103   -1.042146
C     -2.281188   -1.214757   -0.872927
C     -1.646319   -1.216925    0.385128
C     -0.238482   -0.667103    0.543058
C      0.790701   -1.236231   -0.502863
C      1.359483   -2.605868   -0.145058
C      1.213689   -3.734374   -0.996398
C      0.467135   -3.690930   -2.318719
F      0.637547   -4.808564   -3.083943
F      0.796343   -2.647416   -3.127453
F     -0.879009   -3.583360   -2.129541
C      1.748910   -4.976339   -0.588296
C      2.423143   -5.110762    0.620325
C      2.581873   -4.006692    1.446094
C      2.065133   -2.768098    1.064152
N      1.787036   -0.166170   -0.620761
C      2.819415   -0.221941   -1.546449
C      3.594021    0.984429   -1.753155
C      3.215549    2.140224   -2.399338
C      4.247685    3.134395   -2.415348
C      4.252153    4.450553   -2.941122
C      5.396296    5.246723   -2.847421
C      6.543780    4.749557   -2.242612
C      6.567517    3.460580   -1.707133
C      5.411713    2.662125   -1.801226
S      5.208121    1.054667   -1.222656
O      3.025812   -1.238851   -2.207923
C      1.387834    1.012990    0.141007
C      2.283157    1.138001    1.425929
O      1.995323    2.191168    2.229769
O      3.194807    0.369401    1.712058
N     -0.026425    0.791566    0.430065
C     -0.758969    1.863025    0.920390
C     -2.192985    1.772917    1.037165
C     -3.129346    1.748660    0.025351
C     -4.475516    1.686752    0.512519
C     -4.509999    1.702534    1.909748
C     -5.727691    1.642233    2.620341
C     -6.919387    1.531543    1.900449
C     -6.911774    1.525727    0.512278
C     -5.703881    1.609331   -0.185397
S     -2.925122    1.815494    2.573444
O     -0.158805    2.908196    1.188920
H     -4.196196   -2.719902    2.138803
H     -5.241998   -2.702105   -0.094053
H     -4.026362   -1.753814   -2.026846
H     -1.792930   -0.796512   -1.750865
H      0.135523   -0.906505    1.541628
H      0.326202   -1.268016   -1.490041
H      1.641804   -5.855072   -1.225644
H      2.815872   -6.077105    0.919050
H      3.109627   -4.102915    2.390899
H      2.225615   -1.927397    1.739676
H      2.234790    2.287858   -2.836022
H      3.364213    4.843748   -3.424227
H      5.387447    6.255348   -3.257464
H      7.432370    5.372281   -2.175723
H      7.471516    3.076404   -1.240330
H      1.508812    1.929854   -0.439804
H      1.244256    2.752078    1.917733
H     -2.873508    1.759135   -1.028513
H     -5.742398    1.661061    3.706163
H     -7.865394    1.468907    2.436017
H     -7.853825    1.446291   -0.033377
H     -5.710191    1.624060   -1.271812
