
  xtb     03162221563D
 xtb: 6.3.3 (4ae9cef)
 72 78  0     0  0            999 V2000
   -2.4887   -1.9074    0.7875 C   0  0  0  0  0  0  0  0  0  0  0  0
   -1.8817   -2.5607    2.0032 C   0  0  0  0  0  0  0  0  0  0  0  0
   -0.8788   -3.3975    1.6765 F   0  0  0  0  0  0  0  0  0  0  0  0
   -1.3582   -1.7048    2.9009 F   0  0  0  0  0  0  0  0  0  0  0  0
   -2.7677   -3.2939    2.6879 F   0  0  0  0  0  0  0  0  0  0  0  0
   -3.7723   -2.2997    0.4233 C   0  0  0  0  0  0  0  0  0  0  0  0
   -4.3613   -1.8047   -0.7241 C   0  0  0  0  0  0  0  0  0  0  0  0
   -3.6553   -0.9352   -1.5353 C   0  0  0  0  0  0  0  0  0  0  0  0
   -2.3823   -0.5402   -1.1738 C   0  0  0  0  0  0  0  0  0  0  0  0
   -1.7850   -0.9945   -0.0023 C   0  0  0  0  0  0  0  0  0  0  0  0
   -0.3965   -0.5050    0.3247 C   0  0  0  0  0  0  0  0  0  0  0  0
    0.6472   -1.1491   -0.6270 C   0  0  0  0  0  0  0  0  0  0  0  0
    1.3564   -2.3190    0.0106 C   0  0  0  0  0  0  0  0  0  0  0  0
    1.1748   -3.6362   -0.4129 C   0  0  0  0  0  0  0  0  0  0  0  0
    0.2368   -3.9710   -1.5374 C   0  0  0  0  0  0  0  0  0  0  0  0
    0.1516   -5.2825   -1.7825 F   0  0  0  0  0  0  0  0  0  0  0  0
    0.5563   -3.3961   -2.7097 F   0  0  0  0  0  0  0  0  0  0  0  0
   -1.0367   -3.5698   -1.2844 F   0  0  0  0  0  0  0  0  0  0  0  0
    1.8519   -4.6736    0.2155 C   0  0  0  0  0  0  0  0  0  0  0  0
    2.7116   -4.4094    1.2645 C   0  0  0  0  0  0  0  0  0  0  0  0
    2.8954   -3.1063    1.6917 C   0  0  0  0  0  0  0  0  0  0  0  0
    2.2196   -2.0725    1.0724 C   0  0  0  0  0  0  0  0  0  0  0  0
    1.5719   -0.0622   -0.9240 N   0  0  0  0  0  0  0  0  0  0  0  0
    2.8015   -0.3208   -1.4613 C   0  0  0  0  0  0  0  0  0  0  0  0
    3.6902    0.8472   -1.6317 C   0  0  0  0  0  0  0  0  0  0  0  0
    3.4823    2.0372   -2.2525 C   0  0  0  0  0  0  0  0  0  0  0  0
    4.6265    2.8823   -2.2295 C   0  0  0  0  0  0  0  0  0  0  0  0
    4.7816    4.1702   -2.7489 C   0  0  0  0  0  0  0  0  0  0  0  0
    5.9849    4.8180   -2.5945 C   0  0  0  0  0  0  0  0  0  0  0  0
    7.0485    4.2049   -1.9291 C   0  0  0  0  0  0  0  0  0  0  0  0
    6.9220    2.9341   -1.4101 C   0  0  0  0  0  0  0  0  0  0  0  0
    5.7097    2.2755   -1.5636 C   0  0  0  0  0  0  0  0  0  0  0  0
    5.3048    0.6794   -1.0075 S   0  0  0  0  0  0  0  0  0  0  0  0
    3.1369   -1.4454   -1.7623 O   0  0  0  0  0  0  0  0  0  0  0  0
    1.0814    1.2089   -0.4837 C   0  0  0  0  0  0  0  0  0  0  0  0
    2.0078    1.8683    0.5879 C   0  0  0  0  0  0  0  0  0  0  0  0
    1.7562    3.1402    0.8099 O   0  0  0  0  0  0  0  0  0  0  0  0
    2.8558    1.2428    1.1547 O   0  0  0  0  0  0  0  0  0  0  0  0
   -0.2229    0.9250    0.0948 N   0  0  0  0  0  0  0  0  0  0  0  0
   -1.0802    1.9576    0.2508 C   0  0  0  0  0  0  0  0  0  0  0  0
   -2.4210    1.6911    0.7920 C   0  0  0  0  0  0  0  0  0  0  0  0
   -3.5944    2.0315    0.2015 C   0  0  0  0  0  0  0  0  0  0  0  0
   -4.7299    1.6422    0.9641 C   0  0  0  0  0  0  0  0  0  0  0  0
   -4.3611    1.0351    2.1800 C   0  0  0  0  0  0  0  0  0  0  0  0
   -5.3091    0.5680    3.0779 C   0  0  0  0  0  0  0  0  0  0  0  0
   -6.6414    0.7060    2.7487 C   0  0  0  0  0  0  0  0  0  0  0  0
   -7.0260    1.3053    1.5480 C   0  0  0  0  0  0  0  0  0  0  0  0
   -6.0865    1.7730    0.6580 C   0  0  0  0  0  0  0  0  0  0  0  0
   -2.6329    0.9578    2.3591 S   0  0  0  0  0  0  0  0  0  0  0  0
   -0.7365    3.0938   -0.0713 O   0  0  0  0  0  0  0  0  0  0  0  0
   -4.3095   -3.0003    1.0425 H   0  0  0  0  0  0  0  0  0  0  0  0
   -5.3600   -2.1127   -0.9892 H   0  0  0  0  0  0  0  0  0  0  0  0
   -4.0929   -0.5645   -2.4490 H   0  0  0  0  0  0  0  0  0  0  0  0
   -1.8363    0.1421   -1.8085 H   0  0  0  0  0  0  0  0  0  0  0  0
   -0.1204   -0.7238    1.3612 H   0  0  0  0  0  0  0  0  0  0  0  0
    0.1578   -1.4470   -1.5610 H   0  0  0  0  0  0  0  0  0  0  0  0
    1.7048   -5.6873   -0.1223 H   0  0  0  0  0  0  0  0  0  0  0  0
    3.2375   -5.2209    1.7425 H   0  0  0  0  0  0  0  0  0  0  0  0
    3.5688   -2.8890    2.5063 H   0  0  0  0  0  0  0  0  0  0  0  0
    2.3896   -1.0562    1.3965 H   0  0  0  0  0  0  0  0  0  0  0  0
    2.5705    2.3110   -2.7542 H   0  0  0  0  0  0  0  0  0  0  0  0
    3.9571    4.6425   -3.2619 H   0  0  0  0  0  0  0  0  0  0  0  0
    6.1131    5.8144   -2.9901 H   0  0  0  0  0  0  0  0  0  0  0  0
    7.9824    4.7353   -1.8205 H   0  0  0  0  0  0  0  0  0  0  0  0
    7.7400    2.4551   -0.8958 H   0  0  0  0  0  0  0  0  0  0  0  0
    0.9441    1.9206   -1.3153 H   0  0  0  0  0  0  0  0  0  0  0  0
    0.9097    3.4376    0.3867 H   0  0  0  0  0  0  0  0  0  0  0  0
   -3.6541    2.5130   -0.7578 H   0  0  0  0  0  0  0  0  0  0  0  0
   -5.0042    0.1056    4.0032 H   0  0  0  0  0  0  0  0  0  0  0  0
   -7.3978    0.3450    3.4285 H   0  0  0  0  0  0  0  0  0  0  0  0
   -8.0765    1.4018    1.3193 H   0  0  0  0  0  0  0  0  0  0  0  0
   -6.3806    2.2394   -0.2696 H   0  0  0  0  0  0  0  0  0  0  0  0
  1  2  1  0  0  0  0
  2  3  1  0  0  0  0
  2  4  1  0  0  0  0
  2  5  1  0  0  0  0
  1  6  4  0  0  0  0
  6  7  4  0  0  0  0
  7  8  4  0  0  0  0
  8  9  4  0  0  0  0
  1 10  4  0  0  0  0
  9 10  4  0  0  0  0
 10 11  1  0  0  0  0
 11 12  1  0  0  0  0
 12 13  1  0  0  0  0
 13 14  4  0  0  0  0
 14 15  1  0  0  0  0
 15 16  1  0  0  0  0
 15 17  1  0  0  0  0
 15 18  1  0  0  0  0
 14 19  4  0  0  0  0
 19 20  4  0  0  0  0
 20 21  4  0  0  0  0
 13 22  4  0  0  0  0
 21 22  4  0  0  0  0
 12 23  1  0  0  0  0
 23 24  1  0  0  0  0
 24 25  1  0  0  0  0
 25 26  2  0  0  0  0
 26 27  4  0  0  0  0
 27 28  4  0  0  0  0
 28 29  2  0  0  0  0
 29 30  4  0  0  0  0
 30 31  4  0  0  0  0
 27 32  4  0  0  0  0
 31 32  4  0  0  0  0
 25 33  1  0  0  0  0
 32 33  1  0  0  0  0
 24 34  2  0  0  0  0
 23 35  1  0  0  0  0
 35 36  1  0  0  0  0
 36 37  4  0  0  0  0
 36 38  2  0  0  0  0
 11 39  1  0  0  0  0
 35 39  1  0  0  0  0
 39 40  4  0  0  0  0
 40 41  1  0  0  0  0
 41 42  2  0  0  0  0
 42 43  4  0  0  0  0
 43 44  4  0  0  0  0
 44 45  4  0  0  0  0
 45 46  4  0  0  0  0
 46 47  4  0  0  0  0
 43 48  4  0  0  0  0
 47 48  2  0  0  0  0
 41 49  1  0  0  0  0
 44 49  1  0  0  0  0
 40 50  2  0  0  0  0
  6 51  1  0  0  0  0
  7 52  1  0  0  0  0
  8 53  1  0  0  0  0
  9 54  1  0  0  0  0
 11 55  1  0  0  0  0
 12 56  1  0  0  0  0
 19 57  1  0  0  0  0
 20 58  1  0  0  0  0
 21 59  1  0  0  0  0
 22 60  1  0  0  0  0
 26 61  1  0  0  0  0
 28 62  1  0  0  0  0
 29 63  1  0  0  0  0
 30 64  1  0  0  0  0
 31 65  1  0  0  0  0
 35 66  1  0  0  0  0
 37 67  1  0  0  0  0
 42 68  1  0  0  0  0
 45 69  1  0  0  0  0
 46 70  1  0  0  0  0
 47 71  1  0  0  0  0
 48 72  1  0  0  0  0
M  END
