54

O     -3.276600    0.732043   -1.071892
C     -2.701470   -0.338804   -0.855902
C     -3.390080   -1.597577   -1.085646
C     -4.615757   -1.830446   -1.685392
C     -4.808202   -3.228909   -1.676203
C     -3.695370   -3.770659   -1.080615
O     -2.841889   -2.791405   -0.711315
N     -1.351226   -0.327205   -0.491597
C     -0.476339   -1.472708   -0.233701
C     -0.149231   -2.339333   -1.492157
O     -0.444964   -1.722371   -2.669471
O      0.453370   -3.410452   -1.466529
N      0.818016   -0.905724    0.165276
C      1.524578   -1.529355    1.203461
C      2.959360   -1.259279    1.256390
C      3.905429   -1.551075    2.231382
C      5.164114   -1.010906    1.786575
C      4.912742   -0.505142    0.526711
O      3.598868   -0.624719    0.215271
O      0.947247   -2.207614    2.070605
C      0.779443    0.565365    0.132613
C      1.553025    1.227096   -0.999300
C      2.084810    0.541229   -2.099557
C      2.819965    1.229782   -3.070924
C      3.015983    2.605666   -2.967169
C      2.476330    3.309222   -1.895515
C      1.758526    2.627003   -0.915949
C     -0.734770    0.910131    0.006892
C     -1.351648    1.374743    1.330607
C     -1.283403    0.616480    2.514155
C     -1.891082    1.067431    3.689959
C     -2.574893    2.280195    3.708066
C     -2.653762    3.053130    2.549230
C     -2.047603    2.599201    1.369659
H     -5.275906   -1.071206   -2.081184
H     -5.649607   -3.772398   -2.068684
H     -3.373604   -4.777674   -0.863331
H     -0.919007   -2.106950    0.537522
H     -0.806898   -0.825978   -2.524372
H      3.676554   -2.086085    3.154891
H      6.131528   -1.043538    2.282899
H      5.550961   -0.002950   -0.202603
H      1.216651    0.949520    1.065326
H      2.000963   -0.546497   -2.189951
H      3.258452    0.672099   -3.893484
H      3.617331    3.139707   -3.703762
H      2.641093    4.376319   -1.820867
H      1.371024    3.169853   -0.048078
H     -0.920458    1.689838   -0.743335
H     -0.774292   -0.347474    2.549359
H     -1.832089    0.462444    4.598907
H     -3.051134    2.608185    4.628719
H     -3.198261    3.992584    2.565263
H     -2.146820    3.205165    0.468748
