
  xtb     03162223523D
 xtb: 6.3.3 (4ae9cef)
 54 58  0     0  0            999 V2000
    2.3036    0.3858    2.4146 C   0  0  0  0  0  0  0  0  0  0  0  0
    2.7087    0.8479    3.6554 C   0  0  0  0  0  0  0  0  0  0  0  0
    2.1283    0.3495    4.8082 C   0  0  0  0  0  0  0  0  0  0  0  0
    1.1536   -0.6297    4.7148 C   0  0  0  0  0  0  0  0  0  0  0  0
    0.7462   -1.0897    3.4759 C   0  0  0  0  0  0  0  0  0  0  0  0
    1.3026   -0.5709    2.3126 C   0  0  0  0  0  0  0  0  0  0  0  0
    0.8449   -1.0836    0.9663 C   0  0  0  0  0  0  0  0  0  0  0  0
   -0.6893   -1.1032    0.7898 C   0  0  0  0  0  0  0  0  0  0  0  0
   -1.1512   -2.3188    0.0249 C   0  0  0  0  0  0  0  0  0  0  0  0
   -1.8136   -3.3454    0.6819 C   0  0  0  0  0  0  0  0  0  0  0  0
   -2.2076   -4.4778   -0.0080 C   0  0  0  0  0  0  0  0  0  0  0  0
   -1.9410   -4.5947   -1.3613 C   0  0  0  0  0  0  0  0  0  0  0  0
   -1.2853   -3.5716   -2.0238 C   0  0  0  0  0  0  0  0  0  0  0  0
   -0.8938   -2.4383   -1.3350 C   0  0  0  0  0  0  0  0  0  0  0  0
   -0.9566    0.1237    0.0440 N   0  0  0  0  0  0  0  0  0  0  0  0
   -2.2235    0.6119    0.0382 C   0  0  0  0  0  0  0  0  0  0  0  0
   -2.5148    1.8876   -0.6458 C   0  0  0  0  0  0  0  0  0  0  0  0
   -3.7261    2.5094   -0.5039 C   0  0  0  0  0  0  0  0  0  0  0  0
   -3.8192    3.6970   -1.2546 C   0  0  0  0  0  0  0  0  0  0  0  0
   -5.3508    4.7986   -1.2625 Br  0  0  0  0  0  0  0  0  0  0  0  0
   -2.6953    3.9785   -1.9693 C   0  0  0  0  0  0  0  0  0  0  0  0
   -1.4894    2.7875   -1.7265 S   0  0  0  0  0  0  0  0  0  0  0  0
   -3.1261    0.0041    0.5818 O   0  0  0  0  0  0  0  0  0  0  0  0
    0.2664    0.7640   -0.3657 C   0  0  0  0  0  0  0  0  0  0  0  0
    0.5712    2.0239    0.4819 C   0  0  0  0  0  0  0  0  0  0  0  0
   -0.2296    2.1335    1.5304 O   0  0  0  0  0  0  0  0  0  0  0  0
    1.4471    2.7994    0.2191 O   0  0  0  0  0  0  0  0  0  0  0  0
    1.2788   -0.2326   -0.1322 N   0  0  0  0  0  0  0  0  0  0  0  0
    2.1978   -0.7035   -1.0302 C   0  0  0  0  0  0  0  0  0  0  0  0
    2.4392    0.1038   -2.2376 C   0  0  0  0  0  0  0  0  0  0  0  0
    2.4688    1.4546   -2.4498 C   0  0  0  0  0  0  0  0  0  0  0  0
    2.8088    1.7615   -3.7828 C   0  0  0  0  0  0  0  0  0  0  0  0
    2.9054    3.5332   -4.4298 Br  0  0  0  0  0  0  0  0  0  0  0  0
    3.0373    0.6652   -4.5589 C   0  0  0  0  0  0  0  0  0  0  0  0
    2.8628   -0.7846   -3.6669 S   0  0  0  0  0  0  0  0  0  0  0  0
    2.7910   -1.7448   -0.8389 O   0  0  0  0  0  0  0  0  0  0  0  0
    2.7805    0.7666    1.5237 H   0  0  0  0  0  0  0  0  0  0  0  0
    3.4843    1.5966    3.7172 H   0  0  0  0  0  0  0  0  0  0  0  0
    2.4426    0.7122    5.7752 H   0  0  0  0  0  0  0  0  0  0  0  0
    0.7107   -1.0398    5.6099 H   0  0  0  0  0  0  0  0  0  0  0  0
   -0.0000   -1.8678    3.4147 H   0  0  0  0  0  0  0  0  0  0  0  0
    1.2725   -2.0801    0.8000 H   0  0  0  0  0  0  0  0  0  0  0  0
   -1.2178   -1.0475    1.7459 H   0  0  0  0  0  0  0  0  0  0  0  0
   -2.0300   -3.2527    1.7358 H   0  0  0  0  0  0  0  0  0  0  0  0
   -2.7263   -5.2691    0.5118 H   0  0  0  0  0  0  0  0  0  0  0  0
   -2.2469   -5.4788   -1.9000 H   0  0  0  0  0  0  0  0  0  0  0  0
   -1.0769   -3.6553   -3.0800 H   0  0  0  0  0  0  0  0  0  0  0  0
   -0.3882   -1.6427   -1.8637 H   0  0  0  0  0  0  0  0  0  0  0  0
   -4.5098    2.1173    0.1180 H   0  0  0  0  0  0  0  0  0  0  0  0
   -2.5086    4.8099   -2.6194 H   0  0  0  0  0  0  0  0  0  0  0  0
    0.2597    1.0526   -1.4253 H   0  0  0  0  0  0  0  0  0  0  0  0
    0.0064    2.9028    2.0748 H   0  0  0  0  0  0  0  0  0  0  0  0
    2.2998    2.2034   -1.6970 H   0  0  0  0  0  0  0  0  0  0  0  0
    3.2985    0.6410   -5.5980 H   0  0  0  0  0  0  0  0  0  0  0  0
  1  2  4  0  0  0  0
  2  3  4  0  0  0  0
  3  4  4  0  0  0  0
  4  5  4  0  0  0  0
  1  6  4  0  0  0  0
  5  6  4  0  0  0  0
  6  7  1  0  0  0  0
  7  8  1  0  0  0  0
  8  9  1  0  0  0  0
  9 10  4  0  0  0  0
 10 11  4  0  0  0  0
 11 12  4  0  0  0  0
 12 13  4  0  0  0  0
  9 14  4  0  0  0  0
 13 14  4  0  0  0  0
  8 15  1  0  0  0  0
 15 16  4  0  0  0  0
 16 17  1  0  0  0  0
 17 18  2  0  0  0  0
 18 19  4  0  0  0  0
 19 20  1  0  0  0  0
 19 21  2  0  0  0  0
 17 22  1  0  0  0  0
 21 22  1  0  0  0  0
 16 23  2  0  0  0  0
 15 24  1  0  0  0  0
 24 25  1  0  0  0  0
 25 26  1  0  0  0  0
 25 27  2  0  0  0  0
  7 28  1  0  0  0  0
 24 28  1  0  0  0  0
 28 29  1  0  0  0  0
 29 30  1  0  0  0  0
 30 31  2  0  0  0  0
 31 32  4  0  0  0  0
 32 33  1  0  0  0  0
 32 34  2  0  0  0  0
 30 35  1  0  0  0  0
 34 35  1  0  0  0  0
 29 36  2  0  0  0  0
  1 37  1  0  0  0  0
  2 38  1  0  0  0  0
  3 39  1  0  0  0  0
  4 40  1  0  0  0  0
  5 41  1  0  0  0  0
  7 42  1  0  0  0  0
  8 43  1  0  0  0  0
 10 44  1  0  0  0  0
 11 45  1  0  0  0  0
 12 46  1  0  0  0  0
 13 47  1  0  0  0  0
 14 48  1  0  0  0  0
 18 49  1  0  0  0  0
 21 50  1  0  0  0  0
 24 51  1  0  0  0  0
 26 52  1  0  0  0  0
 31 53  1  0  0  0  0
 34 54  1  0  0  0  0
M  END
