72

O     -0.338569   -0.250457    3.799092
C      0.273742    0.266441    2.870286
C      1.519817    0.997943    3.163713
C      1.574387    2.387109    2.998424
C      2.761983    3.065491    3.269728
C      3.886313    2.357489    3.703338
C      3.820232    0.973678    3.884956
C      2.632308    0.290067    3.624865
N     -0.151657    0.196465    1.563769
C     -1.446010   -0.391436    1.265126
C     -2.636402    0.547908    1.644657
O     -2.285438    1.711985    2.243228
O     -3.821805    0.346189    1.421581
N     -1.426223   -0.610502   -0.175417
C     -1.947512   -1.693286   -0.852301
C     -2.755760   -2.672166   -0.104339
C     -2.164643   -3.878030    0.286241
C     -2.924014   -4.818372    0.983794
C     -4.256954   -4.546940    1.293082
C     -4.846704   -3.350736    0.880983
C     -4.098450   -2.412934    0.168890
O     -1.725321   -1.930449   -2.035627
C     -0.444436    0.269351   -0.812163
C     -1.122491    1.451351   -1.495926
C     -1.508987    1.310919   -2.844005
C     -2.123497    2.356291   -3.554938
C     -2.374910    3.579955   -2.900188
C     -2.984005    4.628625   -3.609887
C     -3.338668    4.469059   -4.951142
C     -3.091605    3.261494   -5.597906
C     -2.489866    2.210439   -4.903874
C     -2.012701    3.716913   -1.551329
C     -1.398136    2.667636   -0.858704
C      0.548100    0.613283    0.339723
C      1.875577   -0.106658    0.138917
C      1.993516   -1.502640    0.256491
C      3.219474   -2.153635    0.027089
C      4.354356   -1.388725   -0.327280
C      5.576476   -2.038446   -0.569469
C      5.679166   -3.426837   -0.464959
C      4.564211   -4.181130   -0.109875
C      3.342480   -3.549406    0.135332
C      4.237028    0.002922   -0.436061
C      3.012686    0.635363   -0.208485
H      0.694153    2.934904    2.671005
H      2.813222    4.144659    3.150745
H      4.814878    2.885229    3.907634
H      4.697320    0.426979    4.218288
H      2.577777   -0.787656    3.764980
H     -1.564307   -1.321895    1.826287
H     -3.152222    2.132556    2.421334
H     -1.128890   -4.089976    0.036078
H     -2.477124   -5.760859    1.291749
H     -4.849320   -5.277927    1.842034
H     -5.888881   -3.147843    1.112734
H     -4.566832   -1.492132   -0.173655
H      0.084059   -0.286082   -1.597944
H     -1.325083    0.361482   -3.351629
H     -3.187490    5.579126   -3.122386
H     -3.811649    5.286516   -5.488409
H     -3.369031    3.134896   -6.641668
H     -2.307106    1.271091   -5.422054
H     -2.206935    4.648985   -1.026038
H     -1.145312    2.832261    0.186112
H      0.748316    1.686127    0.411901
H      1.120950   -2.094802    0.523857
H      6.457458   -1.465033   -0.848896
H      6.627803   -3.919483   -0.661874
H      4.642979   -5.262478   -0.028194
H      2.483098   -4.158252    0.405695
H      5.099291    0.609489   -0.702718
H      2.961787    1.718538   -0.304396
