
  xtb     03172200263D
 xtb: 6.3.3 (4ae9cef)
 78 86  0     0  0            999 V2000
    2.3843   -2.6709    3.1522 C   0  0  0  0  0  0  0  0  0  0  0  0
    1.3743   -2.2549    3.9717 C   0  0  0  0  0  0  0  0  0  0  0  0
    0.3749   -1.4102    3.4692 C   0  0  0  0  0  0  0  0  0  0  0  0
    0.4079   -0.9810    2.1711 C   0  0  0  0  0  0  0  0  0  0  0  0
    1.4474   -1.3759    1.2994 C   0  0  0  0  0  0  0  0  0  0  0  0
    2.4452   -2.2555    1.8057 C   0  0  0  0  0  0  0  0  0  0  0  0
    3.4842   -2.6992    0.9627 C   0  0  0  0  0  0  0  0  0  0  0  0
    3.5384   -2.2989   -0.3405 C   0  0  0  0  0  0  0  0  0  0  0  0
    2.5785   -1.4097   -0.8368 C   0  0  0  0  0  0  0  0  0  0  0  0
    1.5624   -0.9301   -0.0463 C   0  0  0  0  0  0  0  0  0  0  0  0
    0.5948    0.0413   -0.6689 C   0  0  0  0  0  0  0  0  0  0  0  0
   -0.8247   -0.5550   -0.8531 C   0  0  0  0  0  0  0  0  0  0  0  0
   -1.0261   -1.0643   -2.2612 C   0  0  0  0  0  0  0  0  0  0  0  0
   -1.5420   -0.2262   -3.2172 C   0  0  0  0  0  0  0  0  0  0  0  0
   -1.7258   -0.6525   -4.5386 C   0  0  0  0  0  0  0  0  0  0  0  0
   -1.3723   -1.9190   -4.9033 C   0  0  0  0  0  0  0  0  0  0  0  0
   -0.8228   -2.8096   -3.9582 C   0  0  0  0  0  0  0  0  0  0  0  0
   -0.6458   -2.3882   -2.6108 C   0  0  0  0  0  0  0  0  0  0  0  0
   -0.0970   -3.3138   -1.6960 C   0  0  0  0  0  0  0  0  0  0  0  0
    0.2623   -4.5722   -2.0913 C   0  0  0  0  0  0  0  0  0  0  0  0
    0.0916   -4.9808   -3.4212 C   0  0  0  0  0  0  0  0  0  0  0  0
   -0.4434   -4.1159   -4.3321 C   0  0  0  0  0  0  0  0  0  0  0  0
   -1.7143    0.5538   -0.5424 N   0  0  0  0  0  0  0  0  0  0  0  0
   -3.0465    0.3202   -0.3923 C   0  0  0  0  0  0  0  0  0  0  0  0
   -3.8790    1.5334   -0.2442 C   0  0  0  0  0  0  0  0  0  0  0  0
   -4.8281    1.7662    0.6947 C   0  0  0  0  0  0  0  0  0  0  0  0
   -5.4834    3.0188    0.5276 C   0  0  0  0  0  0  0  0  0  0  0  0
   -6.4821    3.6038    1.3091 C   0  0  0  0  0  0  0  0  0  0  0  0
   -6.9803    4.8369    0.9558 C   0  0  0  0  0  0  0  0  0  0  0  0
   -6.5014    5.5076   -0.1703 C   0  0  0  0  0  0  0  0  0  0  0  0
   -5.5159    4.9529   -0.9599 C   0  0  0  0  0  0  0  0  0  0  0  0
   -5.0106    3.7125   -0.6028 C   0  0  0  0  0  0  0  0  0  0  0  0
   -3.7716    2.8153   -1.4259 S   0  0  0  0  0  0  0  0  0  0  0  0
   -3.5109   -0.7997   -0.4261 O   0  0  0  0  0  0  0  0  0  0  0  0
   -0.9931    1.7475   -0.1748 C   0  0  0  0  0  0  0  0  0  0  0  0
   -1.5803    2.4546    1.0677 C   0  0  0  0  0  0  0  0  0  0  0  0
   -1.7419    1.5980    2.0809 O   0  0  0  0  0  0  0  0  0  0  0  0
   -1.9872    3.5804    1.0642 O   0  0  0  0  0  0  0  0  0  0  0  0
    0.3501    1.2657    0.0779 N   0  0  0  0  0  0  0  0  0  0  0  0
    1.1108    1.9023    0.9919 C   0  0  0  0  0  0  0  0  0  0  0  0
    2.5196    1.4757    1.1056 C   0  0  0  0  0  0  0  0  0  0  0  0
    3.1394    1.0286    2.2236 C   0  0  0  0  0  0  0  0  0  0  0  0
    4.4993    0.6728    2.0000 C   0  0  0  0  0  0  0  0  0  0  0  0
    4.8943    0.9161    0.6708 C   0  0  0  0  0  0  0  0  0  0  0  0
    6.1788    0.6358    0.2314 C   0  0  0  0  0  0  0  0  0  0  0  0
    7.0729    0.0947    1.1319 C   0  0  0  0  0  0  0  0  0  0  0  0
    6.6967   -0.1599    2.4511 C   0  0  0  0  0  0  0  0  0  0  0  0
    5.4239    0.1248    2.8907 C   0  0  0  0  0  0  0  0  0  0  0  0
    3.5864    1.5722   -0.2715 S   0  0  0  0  0  0  0  0  0  0  0  0
    0.6409    2.7954    1.6775 O   0  0  0  0  0  0  0  0  0  0  0  0
    3.1577   -3.3296    3.5205 H   0  0  0  0  0  0  0  0  0  0  0  0
    1.3354   -2.5751    5.0024 H   0  0  0  0  0  0  0  0  0  0  0  0
   -0.4298   -1.0942    4.1160 H   0  0  0  0  0  0  0  0  0  0  0  0
   -0.3764   -0.3283    1.8280 H   0  0  0  0  0  0  0  0  0  0  0  0
    4.2332   -3.3628    1.3692 H   0  0  0  0  0  0  0  0  0  0  0  0
    4.3253   -2.6448   -0.9930 H   0  0  0  0  0  0  0  0  0  0  0  0
    2.6524   -1.0831   -1.8640 H   0  0  0  0  0  0  0  0  0  0  0  0
    0.9788    0.3201   -1.6625 H   0  0  0  0  0  0  0  0  0  0  0  0
   -1.0211   -1.3624   -0.1398 H   0  0  0  0  0  0  0  0  0  0  0  0
   -1.8296    0.7819   -2.9554 H   0  0  0  0  0  0  0  0  0  0  0  0
   -2.1482    0.0322   -5.2586 H   0  0  0  0  0  0  0  0  0  0  0  0
   -1.5063   -2.2592   -5.9200 H   0  0  0  0  0  0  0  0  0  0  0  0
    0.0469   -3.0353   -0.6645 H   0  0  0  0  0  0  0  0  0  0  0  0
    0.6805   -5.2616   -1.3727 H   0  0  0  0  0  0  0  0  0  0  0  0
    0.3796   -5.9794   -3.7146 H   0  0  0  0  0  0  0  0  0  0  0  0
   -0.5869   -4.4182   -5.3597 H   0  0  0  0  0  0  0  0  0  0  0  0
   -5.0418    1.0781    1.4934 H   0  0  0  0  0  0  0  0  0  0  0  0
   -6.8516    3.0823    2.1793 H   0  0  0  0  0  0  0  0  0  0  0  0
   -7.7517    5.2962    1.5558 H   0  0  0  0  0  0  0  0  0  0  0  0
   -6.9065    6.4752   -0.4250 H   0  0  0  0  0  0  0  0  0  0  0  0
   -5.1386    5.4672   -1.8297 H   0  0  0  0  0  0  0  0  0  0  0  0
   -0.9768    2.4905   -0.9934 H   0  0  0  0  0  0  0  0  0  0  0  0
   -2.0825    2.0696    2.8566 H   0  0  0  0  0  0  0  0  0  0  0  0
    2.6386    0.9140    3.1681 H   0  0  0  0  0  0  0  0  0  0  0  0
    6.4628    0.8341   -0.7901 H   0  0  0  0  0  0  0  0  0  0  0  0
    8.0776   -0.1360    0.8115 H   0  0  0  0  0  0  0  0  0  0  0  0
    7.4179   -0.5849    3.1329 H   0  0  0  0  0  0  0  0  0  0  0  0
    5.1280   -0.0703    3.9102 H   0  0  0  0  0  0  0  0  0  0  0  0
  1  2  2  0  0  0  0
  2  3  4  0  0  0  0
  3  4  2  0  0  0  0
  4  5  4  0  0  0  0
  1  6  4  0  0  0  0
  5  6  4  0  0  0  0
  6  7  4  0  0  0  0
  7  8  2  0  0  0  0
  8  9  4  0  0  0  0
  5 10  4  0  0  0  0
  9 10  2  0  0  0  0
 10 11  1  0  0  0  0
 11 12  1  0  0  0  0
 12 13  1  0  0  0  0
 13 14  2  0  0  0  0
 14 15  4  0  0  0  0
 15 16  2  0  0  0  0
 16 17  4  0  0  0  0
 13 18  4  0  0  0  0
 17 18  4  0  0  0  0
 18 19  4  0  0  0  0
 19 20  2  0  0  0  0
 20 21  4  0  0  0  0
 17 22  4  0  0  0  0
 21 22  2  0  0  0  0
 12 23  1  0  0  0  0
 23 24  1  0  0  0  0
 24 25  1  0  0  0  0
 25 26  2  0  0  0  0
 26 27  1  0  0  0  0
 27 28  4  0  0  0  0
 28 29  4  0  0  0  0
 29 30  4  0  0  0  0
 30 31  4  0  0  0  0
 27 32  4  0  0  0  0
 31 32  4  0  0  0  0
 25 33  1  0  0  0  0
 32 33  1  0  0  0  0
 24 34  2  0  0  0  0
 23 35  1  0  0  0  0
 35 36  1  0  0  0  0
 36 37  1  0  0  0  0
 36 38  2  0  0  0  0
 11 39  1  0  0  0  0
 35 39  1  0  0  0  0
 39 40  4  0  0  0  0
 40 41  1  0  0  0  0
 41 42  2  0  0  0  0
 42 43  1  0  0  0  0
 43 44  4  0  0  0  0
 44 45  4  0  0  0  0
 45 46  4  0  0  0  0
 46 47  4  0  0  0  0
 43 48  4  0  0  0  0
 47 48  4  0  0  0  0
 41 49  1  0  0  0  0
 44 49  1  0  0  0  0
 40 50  2  0  0  0  0
  1 51  1  0  0  0  0
  2 52  1  0  0  0  0
  3 53  1  0  0  0  0
  4 54  1  0  0  0  0
  7 55  1  0  0  0  0
  8 56  1  0  0  0  0
  9 57  1  0  0  0  0
 11 58  1  0  0  0  0
 12 59  1  0  0  0  0
 14 60  1  0  0  0  0
 15 61  1  0  0  0  0
 16 62  1  0  0  0  0
 19 63  1  0  0  0  0
 20 64  1  0  0  0  0
 21 65  1  0  0  0  0
 22 66  1  0  0  0  0
 26 67  1  0  0  0  0
 28 68  1  0  0  0  0
 29 69  1  0  0  0  0
 30 70  1  0  0  0  0
 31 71  1  0  0  0  0
 35 72  1  0  0  0  0
 37 73  1  0  0  0  0
 42 74  1  0  0  0  0
 45 75  1  0  0  0  0
 46 76  1  0  0  0  0
 47 77  1  0  0  0  0
 48 78  1  0  0  0  0
M  END
