72

C      2.163676   -1.560771    1.813146
C      3.292417   -2.175866    2.366538
C      4.501095   -2.237008    1.660316
C      5.639593   -2.853071    2.206389
C      6.834831   -2.906013    1.486295
C      6.909298   -2.333449    0.220449
C      5.786444   -1.718016   -0.335378
C      4.573187   -1.666086    0.371049
C      3.428632   -1.056905   -0.173719
C      2.208623   -1.002635    0.528337
C      1.025408   -0.306089   -0.142569
C     -0.386130   -0.558960    0.457574
C     -1.427278   -0.692449   -0.653206
C     -1.884216   -1.972630   -1.005207
C     -2.828976   -2.159326   -2.028418
C     -3.280392   -3.440620   -2.382691
C     -4.208957   -3.612786   -3.410941
C     -4.706059   -2.505300   -4.090649
C     -4.269326   -1.224003   -3.747836
C     -3.330947   -1.035086   -2.719452
C     -2.872388    0.242599   -2.371576
C     -1.931268    0.412413   -1.353445
N     -0.620476    0.607012    1.318888
C     -1.731566    0.897914    2.090487
C     -2.742574   -0.130175    2.283147
C     -4.116755   -0.022050    2.445592
C     -4.916416    1.227710    2.447935
C     -4.602895   -1.352537    2.587816
C     -3.507634   -2.177125    2.525168
O     -2.378966   -1.450214    2.352748
O     -1.863487    2.031509    2.555915
C      0.415449    1.616853    1.133365
C      1.359525    1.756528    2.371195
O      0.958167    1.066617    3.466479
O      2.405157    2.383304    2.432961
N      1.173162    1.145901   -0.022195
C      1.516214    1.910357   -1.128743
C      1.440982    3.358590   -1.030875
C      1.119973    4.323838   -1.978598
C      0.695296    4.110572   -3.387644
C      1.241162    5.581057   -1.317074
C      1.667774    5.310176   -0.040802
O      1.789732    3.972033    0.140847
O      1.802800    1.359372   -2.191649
H      1.262991   -1.524141    2.422132
H      3.222418   -2.605954    3.364303
H      5.604533   -3.296952    3.198947
H      7.708326   -3.386149    1.916858
H      7.841319   -2.372686   -0.339987
H      5.861630   -1.280016   -1.328860
H      3.490180   -0.603255   -1.162892
H      1.036696   -0.622344   -1.194589
H     -0.414112   -1.466037    1.066376
H     -1.501568   -2.841377   -0.470572
H     -2.900187   -4.319728   -1.865714
H     -4.532325   -4.615317   -3.688374
H     -5.426743   -2.640229   -4.894479
H     -4.662064   -0.370672   -4.296286
H     -3.243924    1.120165   -2.897326
H     -1.603815    1.420584   -1.116606
H     -5.989045    1.008123    2.458440
H     -4.686030    1.828605    3.332761
H     -4.703568    1.824762    1.552717
H     -5.628306   -1.668166    2.721416
H     -3.372119   -3.249770    2.578360
H     -0.065038    2.583811    0.953222
H      1.668650    1.247638    4.116114
H      1.124041    3.196132   -3.810076
H      1.024814    4.946019   -4.015256
H     -0.396309    4.040363   -3.446713
H      1.045853    6.562721   -1.727223
H      1.891813    5.918686    0.823336
