
  xtb     03162223213D
 xtb: 6.3.3 (4ae9cef)
 78 86  0     0  0            999 V2000
    0.9327    0.3773    1.9444 C   0  0  0  0  0  0  0  0  0  0  0  0
    1.8183    0.7245    2.9227 C   0  0  0  0  0  0  0  0  0  0  0  0
    3.1141    0.1693    2.9557 C   0  0  0  0  0  0  0  0  0  0  0  0
    4.0720    0.5484    3.9173 C   0  0  0  0  0  0  0  0  0  0  0  0
    5.3236    0.0001    3.9076 C   0  0  0  0  0  0  0  0  0  0  0  0
    5.6715   -0.9570    2.9418 C   0  0  0  0  0  0  0  0  0  0  0  0
    4.7627   -1.3505    2.0007 C   0  0  0  0  0  0  0  0  0  0  0  0
    3.4662   -0.7969    1.9788 C   0  0  0  0  0  0  0  0  0  0  0  0
    2.5234   -1.1445    0.9919 C   0  0  0  0  0  0  0  0  0  0  0  0
    1.2890   -0.5512    0.9476 C   0  0  0  0  0  0  0  0  0  0  0  0
    0.3312   -0.8464   -0.1805 C   0  0  0  0  0  0  0  0  0  0  0  0
   -1.0196   -1.3966    0.3157 C   0  0  0  0  0  0  0  0  0  0  0  0
   -1.6668   -2.4074   -0.6049 C   0  0  0  0  0  0  0  0  0  0  0  0
   -1.4038   -2.4624   -1.9491 C   0  0  0  0  0  0  0  0  0  0  0  0
   -2.0945   -3.3577   -2.7916 C   0  0  0  0  0  0  0  0  0  0  0  0
   -1.8421   -3.4176   -4.1781 C   0  0  0  0  0  0  0  0  0  0  0  0
   -2.5316   -4.2876   -4.9754 C   0  0  0  0  0  0  0  0  0  0  0  0
   -3.5025   -5.1376   -4.4228 C   0  0  0  0  0  0  0  0  0  0  0  0
   -3.7692   -5.1024   -3.0826 C   0  0  0  0  0  0  0  0  0  0  0  0
   -3.0772   -4.2143   -2.2337 C   0  0  0  0  0  0  0  0  0  0  0  0
   -3.3279   -4.1401   -0.8478 C   0  0  0  0  0  0  0  0  0  0  0  0
   -2.6446   -3.2629   -0.0565 C   0  0  0  0  0  0  0  0  0  0  0  0
   -1.8471   -0.1934    0.3784 N   0  0  0  0  0  0  0  0  0  0  0  0
   -2.9295   -0.0876    1.1942 C   0  0  0  0  0  0  0  0  0  0  0  0
   -3.7178    1.1552    1.0459 C   0  0  0  0  0  0  0  0  0  0  0  0
   -5.0557    1.1885    0.8063 C   0  0  0  0  0  0  0  0  0  0  0  0
   -5.5394    2.4414    0.7268 O   0  0  0  0  0  0  0  0  0  0  0  0
   -4.4942    3.2732    0.9448 C   0  0  0  0  0  0  0  0  0  0  0  0
   -3.3138    2.5309    1.1572 C   0  0  0  0  0  0  0  0  0  0  0  0
   -2.1251    3.2050    1.4361 C   0  0  0  0  0  0  0  0  0  0  0  0
   -2.1451    4.5822    1.4654 C   0  0  0  0  0  0  0  0  0  0  0  0
   -3.3191    5.3001    1.2333 C   0  0  0  0  0  0  0  0  0  0  0  0
   -4.5135    4.6590    0.9756 C   0  0  0  0  0  0  0  0  0  0  0  0
   -3.2093   -0.9555    1.9953 O   0  0  0  0  0  0  0  0  0  0  0  0
   -1.4645    0.6554   -0.7123 C   0  0  0  0  0  0  0  0  0  0  0  0
   -2.3082    0.3721   -1.9685 C   0  0  0  0  0  0  0  0  0  0  0  0
   -1.6039    0.4659   -3.0893 O   0  0  0  0  0  0  0  0  0  0  0  0
   -3.4851    0.1438   -1.9280 O   0  0  0  0  0  0  0  0  0  0  0  0
   -0.0557    0.3779   -0.8843 N   0  0  0  0  0  0  0  0  0  0  0  0
    0.7780    1.3935   -1.2459 C   0  0  0  0  0  0  0  0  0  0  0  0
    2.2131    1.0317   -1.2701 C   0  0  0  0  0  0  0  0  0  0  0  0
    2.8522    0.1222   -2.0490 C   0  0  0  0  0  0  0  0  0  0  0  0
    4.1747    0.0466   -1.7801 O   0  0  0  0  0  0  0  0  0  0  0  0
    4.4166    0.9319   -0.7835 C   0  0  0  0  0  0  0  0  0  0  0  0
    3.2299    1.6011   -0.4300 C   0  0  0  0  0  0  0  0  0  0  0  0
    3.2428    2.5571    0.5804 C   0  0  0  0  0  0  0  0  0  0  0  0
    4.4394    2.8060    1.2155 C   0  0  0  0  0  0  0  0  0  0  0  0
    5.6065    2.1256    0.8649 C   0  0  0  0  0  0  0  0  0  0  0  0
    5.6191    1.1814   -0.1414 C   0  0  0  0  0  0  0  0  0  0  0  0
    0.3564    2.4977   -1.5195 O   0  0  0  0  0  0  0  0  0  0  0  0
   -0.0558    0.8104    1.9267 H   0  0  0  0  0  0  0  0  0  0  0  0
    1.5403    1.4413    3.6818 H   0  0  0  0  0  0  0  0  0  0  0  0
    3.7988    1.2845    4.6595 H   0  0  0  0  0  0  0  0  0  0  0  0
    6.0553    0.2984    4.6439 H   0  0  0  0  0  0  0  0  0  0  0  0
    6.6654   -1.3795    2.9498 H   0  0  0  0  0  0  0  0  0  0  0  0
    5.0257   -2.0851    1.2532 H   0  0  0  0  0  0  0  0  0  0  0  0
    2.8045   -1.8728    0.2433 H   0  0  0  0  0  0  0  0  0  0  0  0
    0.8058   -1.5522   -0.8690 H   0  0  0  0  0  0  0  0  0  0  0  0
   -0.9455   -1.8115    1.3255 H   0  0  0  0  0  0  0  0  0  0  0  0
   -0.6634   -1.8211   -2.4056 H   0  0  0  0  0  0  0  0  0  0  0  0
   -1.0922   -2.7618   -4.5991 H   0  0  0  0  0  0  0  0  0  0  0  0
   -2.3347   -4.3278   -6.0368 H   0  0  0  0  0  0  0  0  0  0  0  0
   -4.0371   -5.8191   -5.0680 H   0  0  0  0  0  0  0  0  0  0  0  0
   -4.5166   -5.7537   -2.6528 H   0  0  0  0  0  0  0  0  0  0  0  0
   -4.0779   -4.7894   -0.4201 H   0  0  0  0  0  0  0  0  0  0  0  0
   -2.8572   -3.1954    0.9992 H   0  0  0  0  0  0  0  0  0  0  0  0
   -5.7460    0.3837    0.6474 H   0  0  0  0  0  0  0  0  0  0  0  0
   -1.2102    2.6683    1.6364 H   0  0  0  0  0  0  0  0  0  0  0  0
   -1.2331    5.1212    1.6723 H   0  0  0  0  0  0  0  0  0  0  0  0
   -3.2914    6.3785    1.2633 H   0  0  0  0  0  0  0  0  0  0  0  0
   -5.4295    5.2018    0.8070 H   0  0  0  0  0  0  0  0  0  0  0  0
   -1.6035    1.7272   -0.4993 H   0  0  0  0  0  0  0  0  0  0  0  0
   -2.1754    0.3432   -3.8653 H   0  0  0  0  0  0  0  0  0  0  0  0
    2.4871   -0.5100   -2.8356 H   0  0  0  0  0  0  0  0  0  0  0  0
    2.3399    3.0846    0.8438 H   0  0  0  0  0  0  0  0  0  0  0  0
    4.4813    3.5411    2.0049 H   0  0  0  0  0  0  0  0  0  0  0  0
    6.5213    2.3451    1.3937 H   0  0  0  0  0  0  0  0  0  0  0  0
    6.5175    0.6549   -0.4194 H   0  0  0  0  0  0  0  0  0  0  0  0
  1  2  2  0  0  0  0
  2  3  4  0  0  0  0
  3  4  4  0  0  0  0
  4  5  2  0  0  0  0
  5  6  4  0  0  0  0
  6  7  2  0  0  0  0
  3  8  4  0  0  0  0
  7  8  4  0  0  0  0
  8  9  4  0  0  0  0
  1 10  4  0  0  0  0
  9 10  2  0  0  0  0
 10 11  1  0  0  0  0
 11 12  1  0  0  0  0
 12 13  1  0  0  0  0
 13 14  2  0  0  0  0
 14 15  4  0  0  0  0
 15 16  4  0  0  0  0
 16 17  2  0  0  0  0
 17 18  4  0  0  0  0
 18 19  2  0  0  0  0
 15 20  4  0  0  0  0
 19 20  4  0  0  0  0
 20 21  4  0  0  0  0
 13 22  4  0  0  0  0
 21 22  2  0  0  0  0
 12 23  1  0  0  0  0
 23 24  1  0  0  0  0
 24 25  1  0  0  0  0
 25 26  2  0  0  0  0
 26 27  1  0  0  0  0
 27 28  1  0  0  0  0
 25 29  1  0  0  0  0
 28 29  4  0  0  0  0
 29 30  4  0  0  0  0
 30 31  4  0  0  0  0
 31 32  4  0  0  0  0
 28 33  4  0  0  0  0
 32 33  4  0  0  0  0
 24 34  2  0  0  0  0
 23 35  1  0  0  0  0
 35 36  1  0  0  0  0
 36 37  1  0  0  0  0
 36 38  2  0  0  0  0
 11 39  1  0  0  0  0
 35 39  1  0  0  0  0
 39 40  1  0  0  0  0
 40 41  1  0  0  0  0
 41 42  2  0  0  0  0
 42 43  1  0  0  0  0
 43 44  1  0  0  0  0
 41 45  1  0  0  0  0
 44 45  4  0  0  0  0
 45 46  4  0  0  0  0
 46 47  4  0  0  0  0
 47 48  4  0  0  0  0
 44 49  4  0  0  0  0
 48 49  4  0  0  0  0
 40 50  2  0  0  0  0
  1 51  1  0  0  0  0
  2 52  1  0  0  0  0
  4 53  1  0  0  0  0
  5 54  1  0  0  0  0
  6 55  1  0  0  0  0
  7 56  1  0  0  0  0
  9 57  1  0  0  0  0
 11 58  1  0  0  0  0
 12 59  1  0  0  0  0
 14 60  1  0  0  0  0
 16 61  1  0  0  0  0
 17 62  1  0  0  0  0
 18 63  1  0  0  0  0
 19 64  1  0  0  0  0
 21 65  1  0  0  0  0
 22 66  1  0  0  0  0
 26 67  1  0  0  0  0
 30 68  1  0  0  0  0
 31 69  1  0  0  0  0
 32 70  1  0  0  0  0
 33 71  1  0  0  0  0
 35 72  1  0  0  0  0
 37 73  1  0  0  0  0
 42 74  1  0  0  0  0
 46 75  1  0  0  0  0
 47 76  1  0  0  0  0
 48 77  1  0  0  0  0
 49 78  1  0  0  0  0
M  END
