
  xtb     03162222593D
 xtb: 6.3.3 (4ae9cef)
 92100  0     0  0            999 V2000
    1.1006    2.5807   -2.0158 C   0  0  0  0  0  0  0  0  0  0  0  0
    1.5550    3.5441   -2.8693 C   0  0  0  0  0  0  0  0  0  0  0  0
    1.9285    4.8181   -2.3923 C   0  0  0  0  0  0  0  0  0  0  0  0
    2.4005    5.8349   -3.2476 C   0  0  0  0  0  0  0  0  0  0  0  0
    2.7531    7.0579   -2.7496 C   0  0  0  0  0  0  0  0  0  0  0  0
    2.6503    7.3199   -1.3742 C   0  0  0  0  0  0  0  0  0  0  0  0
    2.1960    6.3551   -0.5197 C   0  0  0  0  0  0  0  0  0  0  0  0
    1.8245    5.0827   -1.0020 C   0  0  0  0  0  0  0  0  0  0  0  0
    1.3569    4.0663   -0.1454 C   0  0  0  0  0  0  0  0  0  0  0  0
    1.0029    2.8377   -0.6345 C   0  0  0  0  0  0  0  0  0  0  0  0
    0.4822    1.7684    0.2893 C   0  0  0  0  0  0  0  0  0  0  0  0
   -0.9981    1.4237    0.0295 C   0  0  0  0  0  0  0  0  0  0  0  0
   -1.8464    1.7275    1.2395 C   0  0  0  0  0  0  0  0  0  0  0  0
   -2.0217    0.8113    2.2419 C   0  0  0  0  0  0  0  0  0  0  0  0
   -2.7930    1.1187    3.3804 C   0  0  0  0  0  0  0  0  0  0  0  0
   -3.0048    0.1826    4.4140 C   0  0  0  0  0  0  0  0  0  0  0  0
   -3.7525    0.5106    5.5098 C   0  0  0  0  0  0  0  0  0  0  0  0
   -4.3240    1.7879    5.6224 C   0  0  0  0  0  0  0  0  0  0  0  0
   -4.1408    2.7153    4.6350 C   0  0  0  0  0  0  0  0  0  0  0  0
   -3.3748    2.4082    3.4917 C   0  0  0  0  0  0  0  0  0  0  0  0
   -3.1672    3.3375    2.4508 C   0  0  0  0  0  0  0  0  0  0  0  0
   -2.4268    3.0052    1.3534 C   0  0  0  0  0  0  0  0  0  0  0  0
   -0.9891    0.0098   -0.2955 N   0  0  0  0  0  0  0  0  0  0  0  0
   -2.1114   -0.6320   -0.7101 C   0  0  0  0  0  0  0  0  0  0  0  0
   -1.8987   -2.0915   -0.8775 C   0  0  0  0  0  0  0  0  0  0  0  0
   -1.7912   -2.8456   -2.0264 C   0  0  0  0  0  0  0  0  0  0  0  0
   -1.8122   -2.4841   -3.4311 C   0  0  0  0  0  0  0  0  0  0  0  0
   -1.2769   -3.3660   -4.3736 C   0  0  0  0  0  0  0  0  0  0  0  0
   -1.2567   -3.0295   -5.7131 C   0  0  0  0  0  0  0  0  0  0  0  0
   -1.7661   -1.8110   -6.1332 C   0  0  0  0  0  0  0  0  0  0  0  0
   -2.3047   -0.9341   -5.2048 C   0  0  0  0  0  0  0  0  0  0  0  0
   -2.3330   -1.2626   -3.8627 C   0  0  0  0  0  0  0  0  0  0  0  0
   -1.5286   -4.1310   -1.6936 O   0  0  0  0  0  0  0  0  0  0  0  0
   -1.4820   -4.2200   -0.3521 C   0  0  0  0  0  0  0  0  0  0  0  0
   -1.1970   -5.5391    0.2661 C   0  0  0  0  0  0  0  0  0  0  0  0
   -1.7018   -2.9949    0.2026 C   0  0  0  0  0  0  0  0  0  0  0  0
   -3.1613   -0.0515   -0.8860 O   0  0  0  0  0  0  0  0  0  0  0  0
    0.3009   -0.6069   -0.1451 C   0  0  0  0  0  0  0  0  0  0  0  0
    0.7186   -1.3738   -1.4187 C   0  0  0  0  0  0  0  0  0  0  0  0
    0.5185   -0.6574   -2.5188 O   0  0  0  0  0  0  0  0  0  0  0  0
    1.2002   -2.4729   -1.4147 O   0  0  0  0  0  0  0  0  0  0  0  0
    1.1848    0.4993    0.1300 N   0  0  0  0  0  0  0  0  0  0  0  0
    2.5022    0.4136    0.4732 C   0  0  0  0  0  0  0  0  0  0  0  0
    3.0823   -0.9468    0.4012 C   0  0  0  0  0  0  0  0  0  0  0  0
    2.7959   -2.0559    1.1680 C   0  0  0  0  0  0  0  0  0  0  0  0
    1.8532   -2.2458    2.2539 C   0  0  0  0  0  0  0  0  0  0  0  0
    1.3622   -3.5213    2.5383 C   0  0  0  0  0  0  0  0  0  0  0  0
    0.4278   -3.7001    3.5397 C   0  0  0  0  0  0  0  0  0  0  0  0
   -0.0289   -2.6155    4.2718 C   0  0  0  0  0  0  0  0  0  0  0  0
    0.4640   -1.3470    4.0063 C   0  0  0  0  0  0  0  0  0  0  0  0
    1.4012   -1.1599    3.0085 C   0  0  0  0  0  0  0  0  0  0  0  0
    3.5488   -3.0977    0.7527 O   0  0  0  0  0  0  0  0  0  0  0  0
    4.3242   -2.6747   -0.2628 C   0  0  0  0  0  0  0  0  0  0  0  0
    5.2431   -3.6486   -0.9057 C   0  0  0  0  0  0  0  0  0  0  0  0
    4.0859   -1.3555   -0.5146 C   0  0  0  0  0  0  0  0  0  0  0  0
    3.1389    1.3993    0.7805 O   0  0  0  0  0  0  0  0  0  0  0  0
    0.8139    1.6100   -2.3904 H   0  0  0  0  0  0  0  0  0  0  0  0
    1.6338    3.3429   -3.9285 H   0  0  0  0  0  0  0  0  0  0  0  0
    2.4789    5.6285   -4.3058 H   0  0  0  0  0  0  0  0  0  0  0  0
    3.1149    7.8324   -3.4102 H   0  0  0  0  0  0  0  0  0  0  0  0
    2.9349    8.2919   -0.9984 H   0  0  0  0  0  0  0  0  0  0  0  0
    2.1169    6.5503    0.5402 H   0  0  0  0  0  0  0  0  0  0  0  0
    1.2895    4.2701    0.9136 H   0  0  0  0  0  0  0  0  0  0  0  0
    0.6184    2.1069    1.3260 H   0  0  0  0  0  0  0  0  0  0  0  0
   -1.3861    1.9825   -0.8311 H   0  0  0  0  0  0  0  0  0  0  0  0
   -1.5754   -0.1713    2.1742 H   0  0  0  0  0  0  0  0  0  0  0  0
   -2.5678   -0.8013    4.3183 H   0  0  0  0  0  0  0  0  0  0  0  0
   -3.9128   -0.2113    6.2977 H   0  0  0  0  0  0  0  0  0  0  0  0
   -4.9123    2.0292    6.4955 H   0  0  0  0  0  0  0  0  0  0  0  0
   -4.5821    3.6986    4.7148 H   0  0  0  0  0  0  0  0  0  0  0  0
   -3.6116    4.3189    2.5342 H   0  0  0  0  0  0  0  0  0  0  0  0
   -2.2761    3.7186    0.5562 H   0  0  0  0  0  0  0  0  0  0  0  0
   -0.8764   -4.3111   -4.0401 H   0  0  0  0  0  0  0  0  0  0  0  0
   -0.8425   -3.7201   -6.4331 H   0  0  0  0  0  0  0  0  0  0  0  0
   -1.7504   -1.5499   -7.1809 H   0  0  0  0  0  0  0  0  0  0  0  0
   -2.7135    0.0109   -5.5299 H   0  0  0  0  0  0  0  0  0  0  0  0
   -2.7757   -0.5859   -3.1514 H   0  0  0  0  0  0  0  0  0  0  0  0
   -1.2927   -5.4644    1.3446 H   0  0  0  0  0  0  0  0  0  0  0  0
   -0.1846   -5.8554    0.0178 H   0  0  0  0  0  0  0  0  0  0  0  0
   -1.8877   -6.2925   -0.1091 H   0  0  0  0  0  0  0  0  0  0  0  0
   -1.7345   -2.7608    1.2477 H   0  0  0  0  0  0  0  0  0  0  0  0
    0.3095   -1.3407    0.6796 H   0  0  0  0  0  0  0  0  0  0  0  0
    0.7688   -1.1533   -3.3161 H   0  0  0  0  0  0  0  0  0  0  0  0
    1.7152   -4.3587    1.9571 H   0  0  0  0  0  0  0  0  0  0  0  0
    0.0523   -4.6905    3.7525 H   0  0  0  0  0  0  0  0  0  0  0  0
   -0.7595   -2.7598    5.0543 H   0  0  0  0  0  0  0  0  0  0  0  0
    0.1203   -0.5009    4.5832 H   0  0  0  0  0  0  0  0  0  0  0  0
    1.8007   -0.1752    2.8177 H   0  0  0  0  0  0  0  0  0  0  0  0
    5.9273   -3.1274   -1.5680 H   0  0  0  0  0  0  0  0  0  0  0  0
    4.6745   -4.3768   -1.4837 H   0  0  0  0  0  0  0  0  0  0  0  0
    5.8107   -4.1873   -0.1490 H   0  0  0  0  0  0  0  0  0  0  0  0
    4.5476   -0.7406   -1.2595 H   0  0  0  0  0  0  0  0  0  0  0  0
  1  2  2  0  0  0  0
  2  3  4  0  0  0  0
  3  4  4  0  0  0  0
  4  5  2  0  0  0  0
  5  6  4  0  0  0  0
  6  7  2  0  0  0  0
  3  8  4  0  0  0  0
  7  8  4  0  0  0  0
  8  9  4  0  0  0  0
  1 10  4  0  0  0  0
  9 10  2  0  0  0  0
 10 11  1  0  0  0  0
 11 12  1  0  0  0  0
 12 13  1  0  0  0  0
 13 14  2  0  0  0  0
 14 15  4  0  0  0  0
 15 16  4  0  0  0  0
 16 17  2  0  0  0  0
 17 18  4  0  0  0  0
 18 19  2  0  0  0  0
 15 20  4  0  0  0  0
 19 20  4  0  0  0  0
 20 21  4  0  0  0  0
 13 22  4  0  0  0  0
 21 22  2  0  0  0  0
 12 23  1  0  0  0  0
 23 24  4  0  0  0  0
 24 25  1  0  0  0  0
 25 26  4  0  0  0  0
 26 27  1  0  0  0  0
 27 28  4  0  0  0  0
 28 29  4  0  0  0  0
 29 30  4  0  0  0  0
 30 31  4  0  0  0  0
 27 32  4  0  0  0  0
 31 32  4  0  0  0  0
 26 33  1  0  0  0  0
 33 34  1  0  0  0  0
 34 35  1  0  0  0  0
 25 36  4  0  0  0  0
 34 36  2  0  0  0  0
 24 37  2  0  0  0  0
 23 38  1  0  0  0  0
 38 39  1  0  0  0  0
 39 40  1  0  0  0  0
 39 41  2  0  0  0  0
 11 42  1  0  0  0  0
 38 42  1  0  0  0  0
 42 43  1  0  0  0  0
 43 44  1  0  0  0  0
 44 45  4  0  0  0  0
 45 46  1  0  0  0  0
 46 47  4  0  0  0  0
 47 48  4  0  0  0  0
 48 49  4  0  0  0  0
 49 50  4  0  0  0  0
 46 51  4  0  0  0  0
 50 51  4  0  0  0  0
 45 52  1  0  0  0  0
 52 53  1  0  0  0  0
 53 54  1  0  0  0  0
 44 55  4  0  0  0  0
 53 55  2  0  0  0  0
 43 56  2  0  0  0  0
  1 57  1  0  0  0  0
  2 58  1  0  0  0  0
  4 59  1  0  0  0  0
  5 60  1  0  0  0  0
  6 61  1  0  0  0  0
  7 62  1  0  0  0  0
  9 63  1  0  0  0  0
 11 64  1  0  0  0  0
 12 65  1  0  0  0  0
 14 66  1  0  0  0  0
 16 67  1  0  0  0  0
 17 68  1  0  0  0  0
 18 69  1  0  0  0  0
 19 70  1  0  0  0  0
 21 71  1  0  0  0  0
 22 72  1  0  0  0  0
 28 73  1  0  0  0  0
 29 74  1  0  0  0  0
 30 75  1  0  0  0  0
 31 76  1  0  0  0  0
 32 77  1  0  0  0  0
 35 78  1  0  0  0  0
 35 79  1  0  0  0  0
 35 80  1  0  0  0  0
 36 81  1  0  0  0  0
 38 82  1  0  0  0  0
 40 83  1  0  0  0  0
 47 84  1  0  0  0  0
 48 85  1  0  0  0  0
 49 86  1  0  0  0  0
 50 87  1  0  0  0  0
 51 88  1  0  0  0  0
 54 89  1  0  0  0  0
 54 90  1  0  0  0  0
 54 91  1  0  0  0  0
 55 92  1  0  0  0  0
M  END
