62

C     -2.567937   -1.660286    1.199524
O     -2.264926   -1.015740    2.372271
C     -3.271685   -0.974066    3.374480
C     -3.681874   -2.492120    1.031428
C     -3.924541   -3.109362   -0.195314
C     -3.057880   -2.898581   -1.260036
C     -1.940818   -2.077768   -1.099318
C     -1.666328   -1.455552    0.129993
C     -0.458695   -0.548844    0.320440
C      0.774936   -0.627874   -0.626338
C      1.736057   -1.739420   -0.233208
C      2.524186   -1.650168    0.929701
C      3.376018   -2.691922    1.305177
C      3.451467   -3.845850    0.531172
C      2.686787   -3.952082   -0.627822
C      1.853219   -2.898469   -1.015149
O      1.094896   -3.021812   -2.150411
C      1.921903   -2.982665   -3.316100
N      1.367583    0.718313   -0.509078
C      2.339036    1.135104   -1.409408
C      2.740331    2.520025   -1.380393
C      3.825425    3.077568   -0.754778
F      4.682382    2.381431    0.004881
C      3.954546    4.469601   -0.975134
C      2.963988    4.936859   -1.812805
S      1.909041    3.683223   -2.324506
O      2.841613    0.350442   -2.212257
C      0.509743    1.578744    0.302609
C      1.170771    1.822177    1.690563
O      0.463110    1.375831    2.748534
O      2.262321    2.337802    1.885536
N     -0.775262    0.892378    0.372737
C     -1.669648    1.383933   -0.586407
C     -2.587021    2.406048   -0.110874
C     -2.631996    3.096578    1.077692
F     -1.740386    2.948417    2.067097
C     -3.700106    4.020095    1.176153
C     -4.467357    4.019159    0.033903
S     -3.878076    2.911972   -1.131310
O     -1.639858    0.976332   -1.747055
H     -3.434426   -1.966629    3.806665
H     -4.204825   -0.551499    2.986526
H     -2.917521   -0.317713    4.175209
H     -4.378395   -2.685630    1.839870
H     -4.791966   -3.751677   -0.320190
H     -3.248083   -3.368221   -2.221694
H     -1.302794   -1.922276   -1.965272
H     -0.084627   -0.782514    1.327958
H      0.476858   -0.717507   -1.676001
H      2.488035   -0.764963    1.558534
H      3.977326   -2.602491    2.206510
H      4.104211   -4.661444    0.829204
H      2.735319   -4.859068   -1.222669
H      2.385871   -3.959146   -3.488933
H      2.688389   -2.202123   -3.253200
H      1.279297   -2.756420   -4.172435
H      4.735776    5.089125   -0.554378
H      2.815523    5.948475   -2.166146
H      0.377168    2.565838   -0.148930
H      1.010278    1.598898    3.529359
H     -3.892646    4.651441    2.033641
H     -5.343733    4.616093   -0.179819
