
  xtb     03172202193D
 xtb: 6.3.3 (4ae9cef)
 62 66  0     0  0            999 V2000
   -2.4678   -1.8269    1.1660 C   0  0  0  0  0  0  0  0  0  0  0  0
   -2.2783   -0.9149    2.1592 O   0  0  0  0  0  0  0  0  0  0  0  0
   -3.2673   -0.7865    3.1521 C   0  0  0  0  0  0  0  0  0  0  0  0
   -3.4518   -2.8039    1.1668 C   0  0  0  0  0  0  0  0  0  0  0  0
   -3.5448   -3.6927    0.1082 C   0  0  0  0  0  0  0  0  0  0  0  0
   -2.6638   -3.6147   -0.9511 C   0  0  0  0  0  0  0  0  0  0  0  0
   -1.6841   -2.6334   -0.9632 C   0  0  0  0  0  0  0  0  0  0  0  0
   -1.5771   -1.7362    0.0814 C   0  0  0  0  0  0  0  0  0  0  0  0
   -0.5382   -0.6565    0.1619 C   0  0  0  0  0  0  0  0  0  0  0  0
    0.6182   -0.6665   -0.8479 C   0  0  0  0  0  0  0  0  0  0  0  0
    1.6985   -1.6556   -0.5111 C   0  0  0  0  0  0  0  0  0  0  0  0
    2.4305   -1.5212    0.6568 C   0  0  0  0  0  0  0  0  0  0  0  0
    3.4349   -2.4176    0.9748 C   0  0  0  0  0  0  0  0  0  0  0  0
    3.7107   -3.4608    0.1124 C   0  0  0  0  0  0  0  0  0  0  0  0
    2.9933   -3.6099   -1.0616 C   0  0  0  0  0  0  0  0  0  0  0  0
    1.9847   -2.7113   -1.3876 C   0  0  0  0  0  0  0  0  0  0  0  0
    1.2298   -2.7874   -2.5210 O   0  0  0  0  0  0  0  0  0  0  0  0
    1.5522   -3.7637   -3.4823 C   0  0  0  0  0  0  0  0  0  0  0  0
    1.0858    0.7176   -0.7478 N   0  0  0  0  0  0  0  0  0  0  0  0
    2.2751    1.1337   -1.2381 C   0  0  0  0  0  0  0  0  0  0  0  0
    2.5599    2.5767   -0.9604 C   0  0  0  0  0  0  0  0  0  0  0  0
    3.2654    3.0952    0.0846 C   0  0  0  0  0  0  0  0  0  0  0  0
    3.7343    2.3407    1.0915 F   0  0  0  0  0  0  0  0  0  0  0  0
    3.4162    4.4992    0.0599 C   0  0  0  0  0  0  0  0  0  0  0  0
    2.8169    5.0362   -1.0303 C   0  0  0  0  0  0  0  0  0  0  0  0
    2.0748    3.8461   -2.0231 S   0  0  0  0  0  0  0  0  0  0  0  0
    3.0525    0.4196   -1.8270 O   0  0  0  0  0  0  0  0  0  0  0  0
    0.0734    1.5836   -0.1785 C   0  0  0  0  0  0  0  0  0  0  0  0
    0.5405    2.2314    1.1444 C   0  0  0  0  0  0  0  0  0  0  0  0
    0.9868    1.3414    2.0123 O   0  0  0  0  0  0  0  0  0  0  0  0
    0.4877    3.4138    1.3450 O   0  0  0  0  0  0  0  0  0  0  0  0
   -1.0563    0.7072    0.0097 N   0  0  0  0  0  0  0  0  0  0  0  0
   -2.3475    1.0994   -0.1217 C   0  0  0  0  0  0  0  0  0  0  0  0
   -2.5158    2.5778    0.0305 C   0  0  0  0  0  0  0  0  0  0  0  0
   -2.4402    3.2838    1.1969 C   0  0  0  0  0  0  0  0  0  0  0  0
   -2.1197    2.7133    2.3693 F   0  0  0  0  0  0  0  0  0  0  0  0
   -2.7363    4.6579    1.0757 C   0  0  0  0  0  0  0  0  0  0  0  0
   -3.0408    4.9800   -0.2061 C   0  0  0  0  0  0  0  0  0  0  0  0
   -2.9876    3.6214   -1.2582 S   0  0  0  0  0  0  0  0  0  0  0  0
   -3.2924    0.3671   -0.2976 O   0  0  0  0  0  0  0  0  0  0  0  0
   -3.3058   -1.6680    3.8007 H   0  0  0  0  0  0  0  0  0  0  0  0
   -4.2510   -0.6127    2.7072 H   0  0  0  0  0  0  0  0  0  0  0  0
   -2.9787    0.0834    3.7407 H   0  0  0  0  0  0  0  0  0  0  0  0
   -4.1519   -2.8799    1.9836 H   0  0  0  0  0  0  0  0  0  0  0  0
   -4.3165   -4.4481    0.1195 H   0  0  0  0  0  0  0  0  0  0  0  0
   -2.7390   -4.3083   -1.7745 H   0  0  0  0  0  0  0  0  0  0  0  0
   -1.0011   -2.5791   -1.7946 H   0  0  0  0  0  0  0  0  0  0  0  0
   -0.1063   -0.7014    1.1734 H   0  0  0  0  0  0  0  0  0  0  0  0
    0.2589   -0.8416   -1.8673 H   0  0  0  0  0  0  0  0  0  0  0  0
    2.2250   -0.6912    1.3159 H   0  0  0  0  0  0  0  0  0  0  0  0
    4.0018   -2.2956    1.8846 H   0  0  0  0  0  0  0  0  0  0  0  0
    4.4948   -4.1660    0.3452 H   0  0  0  0  0  0  0  0  0  0  0  0
    3.2350   -4.4274   -1.7217 H   0  0  0  0  0  0  0  0  0  0  0  0
    1.4086   -4.7759   -3.0906 H   0  0  0  0  0  0  0  0  0  0  0  0
    2.5798   -3.6489   -3.8391 H   0  0  0  0  0  0  0  0  0  0  0  0
    0.8632   -3.5985   -4.3098 H   0  0  0  0  0  0  0  0  0  0  0  0
    3.9379    5.0512    0.8184 H   0  0  0  0  0  0  0  0  0  0  0  0
    2.7625    6.0664   -1.3175 H   0  0  0  0  0  0  0  0  0  0  0  0
   -0.1842    2.4103   -0.8601 H   0  0  0  0  0  0  0  0  0  0  0  0
    1.2620    1.7635    2.8437 H   0  0  0  0  0  0  0  0  0  0  0  0
   -2.7101    5.3437    1.9010 H   0  0  0  0  0  0  0  0  0  0  0  0
   -3.2973    5.9409   -0.6036 H   0  0  0  0  0  0  0  0  0  0  0  0
  1  2  1  0  0  0  0
  2  3  1  0  0  0  0
  1  4  4  0  0  0  0
  4  5  4  0  0  0  0
  5  6  4  0  0  0  0
  6  7  4  0  0  0  0
  1  8  4  0  0  0  0
  7  8  4  0  0  0  0
  8  9  1  0  0  0  0
  9 10  1  0  0  0  0
 10 11  1  0  0  0  0
 11 12  4  0  0  0  0
 12 13  4  0  0  0  0
 13 14  4  0  0  0  0
 14 15  4  0  0  0  0
 11 16  4  0  0  0  0
 15 16  4  0  0  0  0
 16 17  1  0  0  0  0
 17 18  1  0  0  0  0
 10 19  1  0  0  0  0
 19 20  4  0  0  0  0
 20 21  1  0  0  0  0
 21 22  2  0  0  0  0
 22 23  1  0  0  0  0
 22 24  4  0  0  0  0
 24 25  2  0  0  0  0
 21 26  1  0  0  0  0
 25 26  1  0  0  0  0
 20 27  2  0  0  0  0
 19 28  1  0  0  0  0
 28 29  1  0  0  0  0
 29 30  1  0  0  0  0
 29 31  2  0  0  0  0
  9 32  1  0  0  0  0
 28 32  1  0  0  0  0
 32 33  4  0  0  0  0
 33 34  1  0  0  0  0
 34 35  2  0  0  0  0
 35 36  1  0  0  0  0
 35 37  4  0  0  0  0
 37 38  2  0  0  0  0
 34 39  1  0  0  0  0
 38 39  1  0  0  0  0
 33 40  2  0  0  0  0
  3 41  1  0  0  0  0
  3 42  1  0  0  0  0
  3 43  1  0  0  0  0
  4 44  1  0  0  0  0
  5 45  1  0  0  0  0
  6 46  1  0  0  0  0
  7 47  1  0  0  0  0
  9 48  1  0  0  0  0
 10 49  1  0  0  0  0
 12 50  1  0  0  0  0
 13 51  1  0  0  0  0
 14 52  1  0  0  0  0
 15 53  1  0  0  0  0
 18 54  1  0  0  0  0
 18 55  1  0  0  0  0
 18 56  1  0  0  0  0
 24 57  1  0  0  0  0
 25 58  1  0  0  0  0
 28 59  1  0  0  0  0
 30 60  1  0  0  0  0
 37 61  1  0  0  0  0
 38 62  1  0  0  0  0
M  END
