74

C      0.886084   -4.465551   -0.707307
C     -0.292283   -4.713472   -1.627965
F     -0.301395   -5.961786   -2.179010
F     -1.480406   -4.605676   -0.968462
F     -0.369267   -3.852328   -2.675780
C      1.802695   -5.520142   -0.505648
C      2.898093   -5.371689    0.342642
C      3.099091   -4.171565    1.005807
C      2.204169   -3.115890    0.821770
C      1.088734   -3.233319   -0.030964
C      0.147593   -2.045295   -0.211196
C     -0.631028   -1.637326    1.085183
C     -2.023213   -2.265892    1.122204
C     -2.384277   -3.240186    2.084472
C     -1.439573   -3.688803    3.181324
F     -0.271973   -4.194466    2.688083
F     -1.949013   -4.674326    3.973943
F     -1.081160   -2.686702    4.026863
C     -3.673313   -3.809741    2.032241
C     -4.596185   -3.420755    1.061312
C     -4.255742   -2.444263    0.136077
C     -2.985006   -1.870621    0.165526
N     -0.662225   -0.173495    1.002167
C     -1.353004    0.613987    1.908405
C     -1.567400    2.039714    1.556542
C     -2.077636    2.387974    0.302648
C     -2.281292    3.732500   -0.011161
C     -1.986922    4.733352    0.921112
O     -2.241721    6.003312    0.483200
C     -1.815291    7.073669    1.321316
C     -1.501571    4.379652    2.182900
C     -1.303231    3.031992    2.505108
O     -1.823356    0.192067    2.957547
C      0.473073    0.309898    0.225785
C      1.642687    0.752009    1.168807
O      2.844423    0.212429    0.888547
O      1.560022    1.547479    2.092292
N      0.827585   -0.812895   -0.635683
C      1.415639   -0.715078   -1.883707
C      1.957019    0.589884   -2.299668
C      1.122464    1.530047   -2.908468
C      1.635709    2.782903   -3.264018
C      2.978729    3.082277   -3.025240
O      3.603846    4.268346   -3.301074
C      2.803256    5.312088   -3.845085
C      3.811519    2.112306   -2.456486
C      3.308770    0.862193   -2.099197
O      1.509101   -1.646213   -2.676909
H      1.666418   -6.473155   -1.018266
H      3.596276   -6.193181    0.481996
H      3.956192   -4.048467    1.662141
H      2.394668   -2.192811    1.357837
H     -0.556827   -2.250619   -1.021294
H     -0.055498   -1.867131    1.987954
H     -3.967736   -4.563218    2.761698
H     -5.582856   -3.873874    1.038656
H     -4.976983   -2.121018   -0.608756
H     -2.745649   -1.105663   -0.568099
H     -2.337572    1.626284   -0.425058
H     -2.673496    4.005749   -0.986567
H     -0.728325    7.051711    1.455148
H     -2.336576    7.060820    2.286525
H     -2.072349    8.011889    0.819514
H     -1.284719    5.124336    2.940194
H     -0.946729    2.751564    3.495022
H      0.196641    1.178501   -0.373433
H      3.449918    0.613848    1.544636
H      0.082784    1.290129   -3.107937
H      0.966181    3.498791   -3.730204
H      3.432961    6.206622   -3.923227
H      1.962246    5.556607   -3.186984
H      2.459418    5.055119   -4.853515
H      4.863551    2.333641   -2.293408
H      3.965242    0.110920   -1.665372
