66

C     -1.879216   -2.344391   -0.360610
C     -1.971284   -1.610667   -1.679977
F     -3.167932   -1.787207   -2.308711
F     -1.799681   -0.266468   -1.616259
F     -1.026786   -2.053140   -2.556919
C     -2.436152   -3.646253   -0.349939
C     -2.384335   -4.458377    0.779348
C     -1.767012   -3.991783    1.928288
C     -1.202695   -2.717316    1.942187
C     -1.240163   -1.866729    0.810681
C     -0.580925   -0.500136    0.989174
C      0.658411   -0.280076    0.063735
C      1.962798   -0.680914    0.750050
C      2.716365   -1.819120    0.357258
C      2.294897   -2.745534   -0.767092
F      3.205780   -3.720111   -1.047792
F      1.132828   -3.394925   -0.489122
F      2.085103   -2.092723   -1.940308
C      3.904242   -2.128491    1.052854
C      4.347542   -1.347112    2.117785
C      3.607051   -0.242797    2.512957
C      2.430076    0.082838    1.840243
N      0.575809    1.143476   -0.307780
C      1.243363    1.815397   -1.315854
C      2.383172    1.171440   -1.983256
C      2.257524    0.589459   -3.247902
Br     0.604505    0.516775   -4.176387
C      3.380984    0.024675   -3.860396
C      4.621727    0.056483   -3.218176
C      4.750830    0.668545   -1.971441
C      3.634929    1.237884   -1.357739
O      0.938622    2.951323   -1.674489
C     -0.649831    1.760131    0.192309
C     -0.330083    2.883147    1.232577
O      0.981469    3.137758    1.437460
O     -1.149405    3.531001    1.868771
N     -1.433458    0.665055    0.765026
C     -2.707866    0.765024    1.303520
C     -3.576951    1.906065    0.929999
C     -3.857973    2.113304   -0.429680
C     -4.709679    3.145896   -0.824967
C     -5.302913    3.961886    0.134366
C     -5.052282    3.744674    1.489570
C     -4.197322    2.712268    1.894034
Br    -3.912761    2.509809    3.762756
O     -3.183815   -0.094033    2.039900
H     -2.923685   -4.034770   -1.245005
H     -2.831649   -5.448952    0.764718
H     -1.732841   -4.611439    2.820331
H     -0.742940   -2.378537    2.870371
H     -0.278675   -0.395186    2.040051
H      0.545872   -0.824975   -0.875220
H      4.496531   -2.999187    0.767008
H      5.264077   -1.604865    2.641660
H      3.942193    0.367267    3.348556
H      1.874608    0.952634    2.183345
H      3.299108   -0.445670   -4.837226
H      5.491757   -0.386467   -3.699927
H      5.721225    0.710956   -1.482342
H      3.743663    1.735775   -0.396741
H     -1.190285    2.225544   -0.636716
H      0.973312    3.909384    2.042375
H     -3.432258    1.464921   -1.189835
H     -4.918400    3.306249   -1.880076
H     -5.970143    4.764574   -0.171039
H     -5.528978    4.386735    2.225663
