
  xtb     03162221483D
 xtb: 6.3.3 (4ae9cef)
 68 72  0     0  0            999 V2000
   -0.2744   -1.8684   -2.0079 C   0  0  0  0  0  0  0  0  0  0  0  0
   -0.2143   -2.7165   -3.0982 C   0  0  0  0  0  0  0  0  0  0  0  0
   -0.1574   -4.0872   -2.9095 C   0  0  0  0  0  0  0  0  0  0  0  0
   -0.1644   -4.6059   -1.6264 C   0  0  0  0  0  0  0  0  0  0  0  0
   -0.2219   -3.7576   -0.5345 C   0  0  0  0  0  0  0  0  0  0  0  0
   -0.2745   -2.3837   -0.7169 C   0  0  0  0  0  0  0  0  0  0  0  0
   -0.3219   -1.4515    0.4678 C   0  0  0  0  0  0  0  0  0  0  0  0
    0.9493   -0.5643    0.5573 C   0  0  0  0  0  0  0  0  0  0  0  0
    1.4962   -0.4712    1.9639 C   0  0  0  0  0  0  0  0  0  0  0  0
    1.6933    0.7486    2.5964 C   0  0  0  0  0  0  0  0  0  0  0  0
    2.1975    0.7955    3.8857 C   0  0  0  0  0  0  0  0  0  0  0  0
    2.5188   -0.3735    4.5520 C   0  0  0  0  0  0  0  0  0  0  0  0
    2.3453   -1.5929    3.9182 C   0  0  0  0  0  0  0  0  0  0  0  0
    1.8405   -1.6410    2.6319 C   0  0  0  0  0  0  0  0  0  0  0  0
    0.5073    0.7131    0.0292 N   0  0  0  0  0  0  0  0  0  0  0  0
    1.0071    1.3150   -1.1015 C   0  0  0  0  0  0  0  0  0  0  0  0
    2.3988    0.9668   -1.4806 C   0  0  0  0  0  0  0  0  0  0  0  0
    3.4412    0.8807   -0.5665 C   0  0  0  0  0  0  0  0  0  0  0  0
    4.7309    0.6087   -0.9877 C   0  0  0  0  0  0  0  0  0  0  0  0
    4.9975    0.4076   -2.3392 C   0  0  0  0  0  0  0  0  0  0  0  0
    6.2178    0.1257   -2.8592 O   0  0  0  0  0  0  0  0  0  0  0  0
    7.3237    0.0405   -1.9920 C   0  0  0  0  0  0  0  0  0  0  0  0
    3.9504    0.5024   -3.2610 C   0  0  0  0  0  0  0  0  0  0  0  0
    2.6749    0.7912   -2.8374 C   0  0  0  0  0  0  0  0  0  0  0  0
    0.3368    2.0975   -1.7441 O   0  0  0  0  0  0  0  0  0  0  0  0
   -0.9033    0.8636    0.3145 C   0  0  0  0  0  0  0  0  0  0  0  0
   -1.1174    1.5661    1.6660 C   0  0  0  0  0  0  0  0  0  0  0  0
   -1.4542    0.7136    2.6331 O   0  0  0  0  0  0  0  0  0  0  0  0
   -0.9960    2.7459    1.8370 O   0  0  0  0  0  0  0  0  0  0  0  0
   -1.4039   -0.4886    0.3180 N   0  0  0  0  0  0  0  0  0  0  0  0
   -2.6934   -0.8673    0.5308 C   0  0  0  0  0  0  0  0  0  0  0  0
   -3.6944    0.2266    0.3693 C   0  0  0  0  0  0  0  0  0  0  0  0
   -3.8301    0.9040   -0.8405 C   0  0  0  0  0  0  0  0  0  0  0  0
   -4.7821    1.8879   -0.9826 C   0  0  0  0  0  0  0  0  0  0  0  0
   -5.6192    2.2260    0.0841 C   0  0  0  0  0  0  0  0  0  0  0  0
   -6.5125    3.2200   -0.1588 O   0  0  0  0  0  0  0  0  0  0  0  0
   -7.3925    3.6046    0.8697 C   0  0  0  0  0  0  0  0  0  0  0  0
   -5.4954    1.5398    1.2877 C   0  0  0  0  0  0  0  0  0  0  0  0
   -4.5457    0.5411    1.4172 C   0  0  0  0  0  0  0  0  0  0  0  0
   -2.9855   -2.0127    0.8048 O   0  0  0  0  0  0  0  0  0  0  0  0
   -0.3289   -0.8005   -2.1633 H   0  0  0  0  0  0  0  0  0  0  0  0
   -0.2163   -2.3063   -4.0972 H   0  0  0  0  0  0  0  0  0  0  0  0
   -0.1147   -4.7492   -3.7617 H   0  0  0  0  0  0  0  0  0  0  0  0
   -0.1302   -5.6747   -1.4745 H   0  0  0  0  0  0  0  0  0  0  0  0
   -0.2408   -4.1642    0.4659 H   0  0  0  0  0  0  0  0  0  0  0  0
   -0.4812   -2.0276    1.3860 H   0  0  0  0  0  0  0  0  0  0  0  0
    1.7294   -0.9745   -0.0946 H   0  0  0  0  0  0  0  0  0  0  0  0
    1.4556    1.6689    2.0829 H   0  0  0  0  0  0  0  0  0  0  0  0
    2.3408    1.7520    4.3665 H   0  0  0  0  0  0  0  0  0  0  0  0
    2.9100   -0.3353    5.5575 H   0  0  0  0  0  0  0  0  0  0  0  0
    2.6057   -2.5091    4.4267 H   0  0  0  0  0  0  0  0  0  0  0  0
    1.7177   -2.5928    2.1358 H   0  0  0  0  0  0  0  0  0  0  0  0
    3.2590    1.0495    0.4839 H   0  0  0  0  0  0  0  0  0  0  0  0
    5.5184    0.5611   -0.2523 H   0  0  0  0  0  0  0  0  0  0  0  0
    7.5039    0.9895   -1.4776 H   0  0  0  0  0  0  0  0  0  0  0  0
    7.1951   -0.7563   -1.2530 H   0  0  0  0  0  0  0  0  0  0  0  0
    8.1770   -0.1920   -2.6265 H   0  0  0  0  0  0  0  0  0  0  0  0
    4.1735    0.3545   -4.3053 H   0  0  0  0  0  0  0  0  0  0  0  0
    1.8701    0.8853   -3.5499 H   0  0  0  0  0  0  0  0  0  0  0  0
   -1.3432    1.5038   -0.4645 H   0  0  0  0  0  0  0  0  0  0  0  0
   -1.5815    1.1812    3.4741 H   0  0  0  0  0  0  0  0  0  0  0  0
   -3.2032    0.6406   -1.6797 H   0  0  0  0  0  0  0  0  0  0  0  0
   -4.9024    2.4168   -1.9144 H   0  0  0  0  0  0  0  0  0  0  0  0
   -8.0483    2.7795    1.1665 H   0  0  0  0  0  0  0  0  0  0  0  0
   -6.8504    3.9733    1.7465 H   0  0  0  0  0  0  0  0  0  0  0  0
   -7.9948    4.4113    0.4547 H   0  0  0  0  0  0  0  0  0  0  0  0
   -6.1345    1.7665    2.1264 H   0  0  0  0  0  0  0  0  0  0  0  0
   -4.4587   -0.0015    2.3468 H   0  0  0  0  0  0  0  0  0  0  0  0
  1  2  4  0  0  0  0
  2  3  4  0  0  0  0
  3  4  4  0  0  0  0
  4  5  4  0  0  0  0
  1  6  4  0  0  0  0
  5  6  4  0  0  0  0
  6  7  1  0  0  0  0
  7  8  1  0  0  0  0
  8  9  1  0  0  0  0
  9 10  4  0  0  0  0
 10 11  4  0  0  0  0
 11 12  4  0  0  0  0
 12 13  4  0  0  0  0
  9 14  4  0  0  0  0
 13 14  4  0  0  0  0
  8 15  1  0  0  0  0
 15 16  1  0  0  0  0
 16 17  1  0  0  0  0
 17 18  4  0  0  0  0
 18 19  4  0  0  0  0
 19 20  4  0  0  0  0
 20 21  1  0  0  0  0
 21 22  1  0  0  0  0
 20 23  4  0  0  0  0
 17 24  4  0  0  0  0
 23 24  4  0  0  0  0
 16 25  2  0  0  0  0
 15 26  1  0  0  0  0
 26 27  1  0  0  0  0
 27 28  1  0  0  0  0
 27 29  2  0  0  0  0
  7 30  1  0  0  0  0
 26 30  1  0  0  0  0
 30 31  1  0  0  0  0
 31 32  1  0  0  0  0
 32 33  4  0  0  0  0
 33 34  4  0  0  0  0
 34 35  4  0  0  0  0
 35 36  1  0  0  0  0
 36 37  1  0  0  0  0
 35 38  4  0  0  0  0
 32 39  4  0  0  0  0
 38 39  4  0  0  0  0
 31 40  2  0  0  0  0
  1 41  1  0  0  0  0
  2 42  1  0  0  0  0
  3 43  1  0  0  0  0
  4 44  1  0  0  0  0
  5 45  1  0  0  0  0
  7 46  1  0  0  0  0
  8 47  1  0  0  0  0
 10 48  1  0  0  0  0
 11 49  1  0  0  0  0
 12 50  1  0  0  0  0
 13 51  1  0  0  0  0
 14 52  1  0  0  0  0
 18 53  1  0  0  0  0
 19 54  1  0  0  0  0
 22 55  1  0  0  0  0
 22 56  1  0  0  0  0
 22 57  1  0  0  0  0
 23 58  1  0  0  0  0
 24 59  1  0  0  0  0
 26 60  1  0  0  0  0
 28 61  1  0  0  0  0
 33 62  1  0  0  0  0
 34 63  1  0  0  0  0
 37 64  1  0  0  0  0
 37 65  1  0  0  0  0
 37 66  1  0  0  0  0
 38 67  1  0  0  0  0
 39 68  1  0  0  0  0
M  END
