76

C     -4.117015   -4.713911   -2.230244
C     -4.781779   -4.793451   -1.010775
C     -4.330002   -4.040977    0.061047
C     -3.209575   -3.216383   -0.084761
C     -2.496153   -3.111508   -1.305249
C     -2.991705   -3.887306   -2.391232
C     -2.363526   -3.838524   -3.641106
C     -1.251472   -3.035725   -3.847226
C     -0.748032   -2.274088   -2.798456
C     -1.334049   -2.296350   -1.512148
C     -0.696509   -1.474540   -0.382313
C      0.859307   -1.582418   -0.306949
C      1.360034   -2.276653    0.964657
C      1.986001   -3.526603    0.772086
C      2.513991   -4.245657    1.836844
C      2.428249   -3.730919    3.123429
C      1.802286   -2.502916    3.366180
C      1.248135   -1.754081    2.292962
C      0.619157   -0.535340    2.639317
C      0.549855   -0.071053    3.957497
C      1.113165   -0.812887    4.980165
C      1.732592   -2.022618    4.685610
N      1.347100   -0.207854   -0.468248
C      2.698796    0.073234   -0.538431
C      3.141881    1.485570   -0.446575
C      4.048480    1.971904   -1.395499
C      4.493357    3.294001   -1.322774
C      4.037683    4.119771   -0.284181
N      4.489629    5.515661   -0.210245
O      5.336018    5.889526   -1.031996
O      3.988357    6.236217    0.664255
C      3.159785    3.622118    0.692910
C      2.723918    2.296931    0.614517
O      3.560083   -0.793781   -0.657502
C      0.271313    0.683481   -0.877526
C      0.335296    1.017268   -2.402575
O     -0.848549    0.969880   -3.045704
O      1.331144    1.359118   -3.024395
N     -0.952074   -0.027845   -0.520955
C     -2.076525    0.549205    0.041356
C     -2.172002    2.021195    0.074843
C     -1.893952    2.686335    1.275567
C     -1.983886    4.077076    1.332820
C     -2.373434    4.791672    0.188973
N     -2.491778    6.256896    0.254952
O     -2.067699    6.820187    1.272350
O     -3.012545    6.835798   -0.710018
C     -2.672411    4.121665   -1.006590
C     -2.578145    2.728919   -1.059181
O     -2.967876   -0.076973    0.603925
H     -4.490835   -5.307676   -3.061524
H     -5.650710   -5.435518   -0.899069
H     -4.845164   -4.084489    1.018078
H     -2.923265   -2.642911    0.792049
H     -2.742067   -4.431021   -4.472280
H     -0.773787   -3.011207   -4.823788
H      0.131027   -1.672371   -3.005535
H     -1.108662   -1.795666    0.576013
H      1.264802   -2.133953   -1.162918
H      2.088427   -3.946906   -0.228452
H      3.005463   -5.197522    1.658836
H      2.859596   -4.302563    3.941664
H      0.155271    0.082855    1.886421
H      0.050541    0.866071    4.182433
H      1.072965   -0.455785    6.007364
H      2.167012   -2.594234    5.503006
H      4.407027    1.314518   -2.187858
H      5.195816    3.656916   -2.071310
H      2.823696    4.245285    1.520898
H      2.079938    1.898176    1.394621
H      0.337114    1.631498   -0.342990
H     -0.637403    1.169627   -3.983238
H     -1.626857    2.121611    2.166122
H     -1.766838    4.589584    2.270237
H     -2.992759    4.665427   -1.892225
H     -2.845269    2.196985   -1.969959
