66

C      0.837369   -3.462972    1.511744
C      1.146595   -4.391419    0.355100
F      0.282685   -4.212623   -0.685367
F      2.390820   -4.202726   -0.158492
F      1.067743   -5.713934    0.671614
C      0.742974   -4.012665    2.805860
C      0.443670   -3.213532    3.906151
C      0.234611   -1.852146    3.733055
C      0.330715   -1.285690    2.461664
C      0.642646   -2.067117    1.331056
C      0.732648   -1.431869   -0.068565
C     -0.672962   -1.311302   -0.735138
C     -0.726495   -1.579461   -2.249384
C     -1.941498   -1.933173   -2.899966
C     -3.273536   -2.049960   -2.178656
F     -3.224477   -2.834604   -1.072763
F     -4.262194   -2.579804   -2.955227
F     -3.733503   -0.827983   -1.795441
C     -1.942790   -2.146450   -4.296492
C     -0.781802   -2.017237   -5.051619
C      0.403327   -1.663419   -4.427238
C      0.430993   -1.445039   -3.048657
N     -1.052524    0.093755   -0.452146
C     -2.137081    0.324805    0.398235
C     -2.389723    1.697356    0.890367
C     -2.552849    2.774221    0.010654
C     -2.759521    4.058364    0.519906
C     -2.817185    4.259050    1.899287
C     -2.683240    3.174372    2.760501
F     -2.745371    3.372207    4.083210
C     -2.476577    1.891701    2.271582
O     -2.880702   -0.564546    0.794864
C      0.172355    0.906940   -0.358860
C      0.391694    1.684658   -1.696438
O     -0.659028    1.617813   -2.554298
O      1.390707    2.334963   -1.966311
N      1.227277   -0.047717   -0.038403
C      2.543978    0.216209    0.283831
C      2.960013    1.600854    0.581276
C      3.974300    2.175575   -0.186090
C      4.385351    3.469365    0.103794
F      5.345280    4.039043   -0.635865
C      3.818948    4.186356    1.154681
C      2.831289    3.596613    1.943718
C      2.405507    2.296752    1.664175
O      3.396946   -0.664037    0.347677
H      0.899845   -5.080061    2.962497
H      0.370453   -3.655036    4.897132
H     -0.004082   -1.228423    4.591082
H      0.158894   -0.218347    2.373714
H      1.442960   -2.021221   -0.654082
H     -1.350449   -2.016885   -0.248175
H     -2.866456   -2.414850   -4.810726
H     -0.804817   -2.186153   -6.125738
H      1.313811   -1.550352   -5.012566
H      1.392595   -1.152325   -2.629106
H     -2.549249    2.631232   -1.066168
H     -2.885838    4.901607   -0.157008
H     -2.981238    5.251663    2.308499
H     -2.388933    1.059022    2.964053
H      0.093286    1.647212    0.438717
H     -1.327956    0.970781   -2.243614
H      4.432563    1.633938   -1.007648
H      4.163982    5.195680    1.358362
H      2.406588    4.145450    2.780922
H      1.666657    1.827516    2.307268
