
  xtb     03162222363D
 xtb: 6.3.3 (4ae9cef)
 66 70  0     0  0            999 V2000
    0.5194   -3.4304    1.6201 C   0  0  0  0  0  0  0  0  0  0  0  0
    0.7627   -4.4132    0.5056 C   0  0  0  0  0  0  0  0  0  0  0  0
   -0.0661   -4.2429   -0.5472 F   0  0  0  0  0  0  0  0  0  0  0  0
    2.0073   -4.3261   -0.0004 F   0  0  0  0  0  0  0  0  0  0  0  0
    0.6077   -5.6848    0.8882 F   0  0  0  0  0  0  0  0  0  0  0  0
    0.2882   -3.9223    2.8981 C   0  0  0  0  0  0  0  0  0  0  0  0
    0.0873   -3.0525    3.9540 C   0  0  0  0  0  0  0  0  0  0  0  0
    0.1288   -1.6881    3.7342 C   0  0  0  0  0  0  0  0  0  0  0  0
    0.3588   -1.1992    2.4613 C   0  0  0  0  0  0  0  0  0  0  0  0
    0.5531   -2.0527    1.3847 C   0  0  0  0  0  0  0  0  0  0  0  0
    0.7539   -1.5030   -0.0104 C   0  0  0  0  0  0  0  0  0  0  0  0
   -0.6003   -1.4152   -0.7519 C   0  0  0  0  0  0  0  0  0  0  0  0
   -0.5112   -1.5625   -2.2580 C   0  0  0  0  0  0  0  0  0  0  0  0
   -1.6710   -1.6947   -3.0362 C   0  0  0  0  0  0  0  0  0  0  0  0
   -3.0466   -1.6146   -2.4255 C   0  0  0  0  0  0  0  0  0  0  0  0
   -3.2662   -2.4782   -1.4324 F   0  0  0  0  0  0  0  0  0  0  0  0
   -4.0243   -1.8150   -3.3161 F   0  0  0  0  0  0  0  0  0  0  0  0
   -3.2768   -0.3704   -1.9214 F   0  0  0  0  0  0  0  0  0  0  0  0
   -1.5909   -1.8349   -4.4158 C   0  0  0  0  0  0  0  0  0  0  0  0
   -0.3621   -1.8390   -5.0490 C   0  0  0  0  0  0  0  0  0  0  0  0
    0.7871   -1.6843   -4.2985 C   0  0  0  0  0  0  0  0  0  0  0  0
    0.7098   -1.5480   -2.9231 C   0  0  0  0  0  0  0  0  0  0  0  0
   -1.0532   -0.0667   -0.3814 N   0  0  0  0  0  0  0  0  0  0  0  0
   -1.9768    0.0449    0.6508 C   0  0  0  0  0  0  0  0  0  0  0  0
   -2.1450    1.4268    1.1907 C   0  0  0  0  0  0  0  0  0  0  0  0
   -2.3986    2.5252    0.3740 C   0  0  0  0  0  0  0  0  0  0  0  0
   -2.5621    3.7821    0.9313 C   0  0  0  0  0  0  0  0  0  0  0  0
   -2.4634    3.9630    2.3000 C   0  0  0  0  0  0  0  0  0  0  0  0
   -2.2293    2.8572    3.0991 C   0  0  0  0  0  0  0  0  0  0  0  0
   -2.1363    3.0194    4.4305 F   0  0  0  0  0  0  0  0  0  0  0  0
   -2.0806    1.5887    2.5703 C   0  0  0  0  0  0  0  0  0  0  0  0
   -2.6107   -0.8984    1.0498 O   0  0  0  0  0  0  0  0  0  0  0  0
    0.1262    0.7589   -0.4516 C   0  0  0  0  0  0  0  0  0  0  0  0
    0.3721    1.2515   -1.9059 C   0  0  0  0  0  0  0  0  0  0  0  0
   -0.7387    1.4465   -2.6087 O   0  0  0  0  0  0  0  0  0  0  0  0
    1.4641    1.4818   -2.3275 O   0  0  0  0  0  0  0  0  0  0  0  0
    1.1905   -0.1109    0.0089 N   0  0  0  0  0  0  0  0  0  0  0  0
    2.4837    0.2267    0.2799 C   0  0  0  0  0  0  0  0  0  0  0  0
    2.7489    1.6943    0.3902 C   0  0  0  0  0  0  0  0  0  0  0  0
    3.6973    2.2779   -0.4371 C   0  0  0  0  0  0  0  0  0  0  0  0
    3.9626    3.6268   -0.2917 C   0  0  0  0  0  0  0  0  0  0  0  0
    4.8714    4.2040   -1.0972 F   0  0  0  0  0  0  0  0  0  0  0  0
    3.3290    4.4044    0.6618 C   0  0  0  0  0  0  0  0  0  0  0  0
    2.4059    3.8036    1.4995 C   0  0  0  0  0  0  0  0  0  0  0  0
    2.1149    2.4572    1.3664 C   0  0  0  0  0  0  0  0  0  0  0  0
    3.3287   -0.6192    0.4630 O   0  0  0  0  0  0  0  0  0  0  0  0
    0.2666   -4.9880    3.0636 H   0  0  0  0  0  0  0  0  0  0  0  0
   -0.0944   -3.4420    4.9430 H   0  0  0  0  0  0  0  0  0  0  0  0
   -0.0156   -1.0017    4.5549 H   0  0  0  0  0  0  0  0  0  0  0  0
    0.4016   -0.1325    2.3026 H   0  0  0  0  0  0  0  0  0  0  0  0
    1.4952   -2.1134   -0.5283 H   0  0  0  0  0  0  0  0  0  0  0  0
   -1.3183   -2.1298   -0.3412 H   0  0  0  0  0  0  0  0  0  0  0  0
   -2.4957   -1.9384   -4.9937 H   0  0  0  0  0  0  0  0  0  0  0  0
   -0.3099   -1.9509   -6.1201 H   0  0  0  0  0  0  0  0  0  0  0  0
    1.7535   -1.6643   -4.7769 H   0  0  0  0  0  0  0  0  0  0  0  0
    1.6314   -1.4158   -2.3814 H   0  0  0  0  0  0  0  0  0  0  0  0
   -2.5025    2.3968   -0.6924 H   0  0  0  0  0  0  0  0  0  0  0  0
   -2.7656    4.6274    0.2928 H   0  0  0  0  0  0  0  0  0  0  0  0
   -2.5779    4.9357    2.7509 H   0  0  0  0  0  0  0  0  0  0  0  0
   -1.9219    0.7394    3.2162 H   0  0  0  0  0  0  0  0  0  0  0  0
    0.0336    1.6602    0.1686 H   0  0  0  0  0  0  0  0  0  0  0  0
   -1.5305    1.1101   -2.1515 H   0  0  0  0  0  0  0  0  0  0  0  0
    4.2073    1.6972   -1.1875 H   0  0  0  0  0  0  0  0  0  0  0  0
    3.5679    5.4526    0.7453 H   0  0  0  0  0  0  0  0  0  0  0  0
    1.9131    4.3872    2.2622 H   0  0  0  0  0  0  0  0  0  0  0  0
    1.4127    1.9965    2.0473 H   0  0  0  0  0  0  0  0  0  0  0  0
  1  2  1  0  0  0  0
  2  3  1  0  0  0  0
  2  4  1  0  0  0  0
  2  5  1  0  0  0  0
  1  6  4  0  0  0  0
  6  7  4  0  0  0  0
  7  8  4  0  0  0  0
  8  9  4  0  0  0  0
  1 10  4  0  0  0  0
  9 10  4  0  0  0  0
 10 11  1  0  0  0  0
 11 12  1  0  0  0  0
 12 13  1  0  0  0  0
 13 14  4  0  0  0  0
 14 15  1  0  0  0  0
 15 16  1  0  0  0  0
 15 17  1  0  0  0  0
 15 18  1  0  0  0  0
 14 19  4  0  0  0  0
 19 20  4  0  0  0  0
 20 21  4  0  0  0  0
 13 22  4  0  0  0  0
 21 22  4  0  0  0  0
 12 23  1  0  0  0  0
 23 24  1  0  0  0  0
 24 25  1  0  0  0  0
 25 26  4  0  0  0  0
 26 27  4  0  0  0  0
 27 28  4  0  0  0  0
 28 29  4  0  0  0  0
 29 30  1  0  0  0  0
 25 31  4  0  0  0  0
 29 31  4  0  0  0  0
 24 32  2  0  0  0  0
 23 33  1  0  0  0  0
 33 34  1  0  0  0  0
 34 35  1  0  0  0  0
 34 36  2  0  0  0  0
 11 37  1  0  0  0  0
 33 37  1  0  0  0  0
 37 38  1  0  0  0  0
 38 39  1  0  0  0  0
 39 40  4  0  0  0  0
 40 41  4  0  0  0  0
 41 42  1  0  0  0  0
 41 43  4  0  0  0  0
 43 44  4  0  0  0  0
 39 45  4  0  0  0  0
 44 45  4  0  0  0  0
 38 46  2  0  0  0  0
  6 47  1  0  0  0  0
  7 48  1  0  0  0  0
  8 49  1  0  0  0  0
  9 50  1  0  0  0  0
 11 51  1  0  0  0  0
 12 52  1  0  0  0  0
 19 53  1  0  0  0  0
 20 54  1  0  0  0  0
 21 55  1  0  0  0  0
 22 56  1  0  0  0  0
 26 57  1  0  0  0  0
 27 58  1  0  0  0  0
 28 59  1  0  0  0  0
 31 60  1  0  0  0  0
 33 61  1  0  0  0  0
 35 62  1  0  0  0  0
 40 63  1  0  0  0  0
 43 64  1  0  0  0  0
 44 65  1  0  0  0  0
 45 66  1  0  0  0  0
M  END
