
  xtb     03162223253D
 xtb: 6.3.3 (4ae9cef)
 68 74  0     0  0            999 V2000
   -0.1482    5.4509   -1.1075 C   0  0  0  0  0  0  0  0  0  0  0  0
    0.1485    5.1967   -2.4164 C   0  0  0  0  0  0  0  0  0  0  0  0
    0.0553    3.8883   -2.9103 C   0  0  0  0  0  0  0  0  0  0  0  0
   -0.3125    2.8578   -2.0898 C   0  0  0  0  0  0  0  0  0  0  0  0
   -0.6016    3.0787   -0.7253 C   0  0  0  0  0  0  0  0  0  0  0  0
   -0.5327    4.4113   -0.2351 C   0  0  0  0  0  0  0  0  0  0  0  0
   -0.8547    4.6754    1.1125 C   0  0  0  0  0  0  0  0  0  0  0  0
   -1.2396    3.6634    1.9418 C   0  0  0  0  0  0  0  0  0  0  0  0
   -1.2889    2.3440    1.4689 C   0  0  0  0  0  0  0  0  0  0  0  0
   -0.9649    2.0377    0.1739 C   0  0  0  0  0  0  0  0  0  0  0  0
   -0.9591    0.6081   -0.3265 C   0  0  0  0  0  0  0  0  0  0  0  0
    0.4788    0.1001   -0.5882 C   0  0  0  0  0  0  0  0  0  0  0  0
    0.6549   -0.5218   -1.9543 C   0  0  0  0  0  0  0  0  0  0  0  0
   -0.1024   -1.6303   -2.2470 C   0  0  0  0  0  0  0  0  0  0  0  0
   -0.0085   -2.2764   -3.4845 C   0  0  0  0  0  0  0  0  0  0  0  0
    0.8481   -1.7993   -4.4346 C   0  0  0  0  0  0  0  0  0  0  0  0
    1.6447   -0.6650   -4.1794 C   0  0  0  0  0  0  0  0  0  0  0  0
    1.5640   -0.0092   -2.9180 C   0  0  0  0  0  0  0  0  0  0  0  0
    2.3907    1.1169   -2.7076 C   0  0  0  0  0  0  0  0  0  0  0  0
    3.2323    1.5706   -3.6838 C   0  0  0  0  0  0  0  0  0  0  0  0
    3.3010    0.9272   -4.9277 C   0  0  0  0  0  0  0  0  0  0  0  0
    2.5246   -0.1698   -5.1654 C   0  0  0  0  0  0  0  0  0  0  0  0
    0.6842   -0.9135    0.4427 N   0  0  0  0  0  0  0  0  0  0  0  0
    1.9115   -1.4473    0.6564 C   0  0  0  0  0  0  0  0  0  0  0  0
    1.9404   -2.4650    1.7554 C   0  0  0  0  0  0  0  0  0  0  0  0
    1.3305   -3.6905    1.8631 C   0  0  0  0  0  0  0  0  0  0  0  0
    1.7514   -4.2365    3.0896 C   0  0  0  0  0  0  0  0  0  0  0  0
    2.5928   -3.2997    3.6456 C   0  0  0  0  0  0  0  0  0  0  0  0
    3.2735   -3.3247    4.8728 C   0  0  0  0  0  0  0  0  0  0  0  0
    3.8150   -3.3623    5.8826 N   0  0  0  0  0  0  0  0  0  0  0  0
    2.7063   -2.2290    2.8276 O   0  0  0  0  0  0  0  0  0  0  0  0
    2.8846   -1.1544    0.0029 O   0  0  0  0  0  0  0  0  0  0  0  0
   -0.4520   -1.0668    1.3057 C   0  0  0  0  0  0  0  0  0  0  0  0
   -0.2183   -0.4595    2.7138 C   0  0  0  0  0  0  0  0  0  0  0  0
    0.8844    0.2692    2.7711 O   0  0  0  0  0  0  0  0  0  0  0  0
   -0.9715   -0.6326    3.6315 O   0  0  0  0  0  0  0  0  0  0  0  0
   -1.5008   -0.3527    0.6230 N   0  0  0  0  0  0  0  0  0  0  0  0
   -2.8425   -0.4045    0.8451 C   0  0  0  0  0  0  0  0  0  0  0  0
   -3.3433   -1.3657    1.8486 C   0  0  0  0  0  0  0  0  0  0  0  0
   -4.5296   -1.2825    2.5412 C   0  0  0  0  0  0  0  0  0  0  0  0
   -4.5815   -2.4073    3.3801 C   0  0  0  0  0  0  0  0  0  0  0  0
   -3.4252   -3.1131    3.1330 C   0  0  0  0  0  0  0  0  0  0  0  0
   -2.9566   -4.3178    3.6796 C   0  0  0  0  0  0  0  0  0  0  0  0
   -2.5742   -5.3045    4.1220 N   0  0  0  0  0  0  0  0  0  0  0  0
   -2.6794   -2.4810    2.2006 O   0  0  0  0  0  0  0  0  0  0  0  0
   -3.6101    0.3229    0.2468 O   0  0  0  0  0  0  0  0  0  0  0  0
   -0.0964    6.4569   -0.7165 H   0  0  0  0  0  0  0  0  0  0  0  0
    0.4444    5.9974   -3.0776 H   0  0  0  0  0  0  0  0  0  0  0  0
    0.2753    3.6935   -3.9495 H   0  0  0  0  0  0  0  0  0  0  0  0
   -0.3872    1.8651   -2.5025 H   0  0  0  0  0  0  0  0  0  0  0  0
   -0.8000    5.6930    1.4705 H   0  0  0  0  0  0  0  0  0  0  0  0
   -1.5060    3.8626    2.9690 H   0  0  0  0  0  0  0  0  0  0  0  0
   -1.6090    1.5719    2.1530 H   0  0  0  0  0  0  0  0  0  0  0  0
   -1.5789    0.5491   -1.2285 H   0  0  0  0  0  0  0  0  0  0  0  0
    1.2018    0.9027   -0.4266 H   0  0  0  0  0  0  0  0  0  0  0  0
   -0.7908   -2.0167   -1.5079 H   0  0  0  0  0  0  0  0  0  0  0  0
   -0.6180   -3.1466   -3.6768 H   0  0  0  0  0  0  0  0  0  0  0  0
    0.9297   -2.2843   -5.3965 H   0  0  0  0  0  0  0  0  0  0  0  0
    2.3724    1.6370   -1.7637 H   0  0  0  0  0  0  0  0  0  0  0  0
    3.8545    2.4334   -3.4977 H   0  0  0  0  0  0  0  0  0  0  0  0
    3.9715    1.3015   -5.6868 H   0  0  0  0  0  0  0  0  0  0  0  0
    2.5699   -0.6814   -6.1162 H   0  0  0  0  0  0  0  0  0  0  0  0
    0.6822   -4.1530    1.1467 H   0  0  0  0  0  0  0  0  0  0  0  0
    1.4744   -5.1804    3.5123 H   0  0  0  0  0  0  0  0  0  0  0  0
   -0.7190   -2.1217    1.4440 H   0  0  0  0  0  0  0  0  0  0  0  0
    1.0168    0.6564    3.6527 H   0  0  0  0  0  0  0  0  0  0  0  0
   -5.2536   -0.4997    2.4494 H   0  0  0  0  0  0  0  0  0  0  0  0
   -5.3535   -2.6733    4.0727 H   0  0  0  0  0  0  0  0  0  0  0  0
  1  2  2  0  0  0  0
  2  3  4  0  0  0  0
  3  4  2  0  0  0  0
  4  5  4  0  0  0  0
  1  6  4  0  0  0  0
  5  6  4  0  0  0  0
  6  7  4  0  0  0  0
  7  8  2  0  0  0  0
  8  9  4  0  0  0  0
  5 10  4  0  0  0  0
  9 10  2  0  0  0  0
 10 11  1  0  0  0  0
 11 12  1  0  0  0  0
 12 13  1  0  0  0  0
 13 14  2  0  0  0  0
 14 15  4  0  0  0  0
 15 16  2  0  0  0  0
 16 17  4  0  0  0  0
 13 18  4  0  0  0  0
 17 18  4  0  0  0  0
 18 19  4  0  0  0  0
 19 20  2  0  0  0  0
 20 21  4  0  0  0  0
 17 22  4  0  0  0  0
 21 22  2  0  0  0  0
 12 23  1  0  0  0  0
 23 24  4  0  0  0  0
 24 25  1  0  0  0  0
 25 26  2  0  0  0  0
 26 27  4  0  0  0  0
 27 28  4  0  0  0  0
 28 29  1  0  0  0  0
 29 30  3  0  0  0  0
 25 31  1  0  0  0  0
 28 31  1  0  0  0  0
 24 32  2  0  0  0  0
 23 33  1  0  0  0  0
 33 34  1  0  0  0  0
 34 35  1  0  0  0  0
 34 36  2  0  0  0  0
 11 37  1  0  0  0  0
 33 37  1  0  0  0  0
 37 38  1  0  0  0  0
 38 39  1  0  0  0  0
 39 40  2  0  0  0  0
 40 41  4  0  0  0  0
 41 42  4  0  0  0  0
 42 43  1  0  0  0  0
 43 44  3  0  0  0  0
 39 45  1  0  0  0  0
 42 45  1  0  0  0  0
 38 46  2  0  0  0  0
  1 47  1  0  0  0  0
  2 48  1  0  0  0  0
  3 49  1  0  0  0  0
  4 50  1  0  0  0  0
  7 51  1  0  0  0  0
  8 52  1  0  0  0  0
  9 53  1  0  0  0  0
 11 54  1  0  0  0  0
 12 55  1  0  0  0  0
 14 56  1  0  0  0  0
 15 57  1  0  0  0  0
 16 58  1  0  0  0  0
 19 59  1  0  0  0  0
 20 60  1  0  0  0  0
 21 61  1  0  0  0  0
 22 62  1  0  0  0  0
 26 63  1  0  0  0  0
 27 64  1  0  0  0  0
 33 65  1  0  0  0  0
 35 66  1  0  0  0  0
 40 67  1  0  0  0  0
 41 68  1  0  0  0  0
M  END
