
  xtb     03172202193D
 xtb: 6.3.3 (4ae9cef)
 29 30  0     0  0            999 V2000
   -4.9935    0.0298   -1.4008 C   0  0  0  0  0  0  0  0  0  0  0  0
   -4.2056   -0.3982   -0.4333 C   0  0  0  0  0  0  0  0  0  0  0  0
   -3.5471    0.4891    0.5813 C   0  0  0  0  0  0  0  0  0  0  0  0
   -2.0511    0.3486    0.4833 C   0  0  0  0  0  0  0  0  0  0  0  0
   -1.3349   -0.4008    1.4064 C   0  0  0  0  0  0  0  0  0  0  0  0
    0.0351   -0.5427    1.2921 C   0  0  0  0  0  0  0  0  0  0  0  0
    0.7270    0.0541    0.2419 C   0  0  0  0  0  0  0  0  0  0  0  0
    2.1849   -0.0941    0.1202 C   0  0  0  0  0  0  0  0  0  0  0  0
    2.7760   -0.3196   -1.1208 C   0  0  0  0  0  0  0  0  0  0  0  0
    4.1468   -0.4593   -1.2331 C   0  0  0  0  0  0  0  0  0  0  0  0
    4.9505   -0.3713   -0.1089 C   0  0  0  0  0  0  0  0  0  0  0  0
    4.3741   -0.1454    1.1298 C   0  0  0  0  0  0  0  0  0  0  0  0
    3.0031   -0.0104    1.2445 C   0  0  0  0  0  0  0  0  0  0  0  0
    0.0046    0.7972   -0.6894 C   0  0  0  0  0  0  0  0  0  0  0  0
   -1.3630    0.9423   -0.5680 C   0  0  0  0  0  0  0  0  0  0  0  0
   -5.2348    1.0742   -1.5165 H   0  0  0  0  0  0  0  0  0  0  0  0
   -5.4391   -0.6425   -2.1143 H   0  0  0  0  0  0  0  0  0  0  0  0
   -3.9740   -1.4513   -0.3382 H   0  0  0  0  0  0  0  0  0  0  0  0
   -3.8766    0.1975    1.5823 H   0  0  0  0  0  0  0  0  0  0  0  0
   -3.8395    1.5266    0.4064 H   0  0  0  0  0  0  0  0  0  0  0  0
   -1.8540   -0.8774    2.2265 H   0  0  0  0  0  0  0  0  0  0  0  0
    0.5735   -1.1399    2.0138 H   0  0  0  0  0  0  0  0  0  0  0  0
    2.1524   -0.4054   -1.9989 H   0  0  0  0  0  0  0  0  0  0  0  0
    4.5908   -0.6394   -2.2016 H   0  0  0  0  0  0  0  0  0  0  0  0
    6.0217   -0.4782   -0.1976 H   0  0  0  0  0  0  0  0  0  0  0  0
    4.9966   -0.0722    2.0100 H   0  0  0  0  0  0  0  0  0  0  0  0
    2.5603    0.1824    2.2111 H   0  0  0  0  0  0  0  0  0  0  0  0
    0.5252    1.2818   -1.5027 H   0  0  0  0  0  0  0  0  0  0  0  0
   -1.9093    1.5245   -1.2964 H   0  0  0  0  0  0  0  0  0  0  0  0
  1  2  2  0  0  0  0
  2  3  1  0  0  0  0
  3  4  1  0  0  0  0
  4  5  4  0  0  0  0
  5  6  4  0  0  0  0
  6  7  4  0  0  0  0
  7  8  1  0  0  0  0
  8  9  4  0  0  0  0
  9 10  4  0  0  0  0
 10 11  4  0  0  0  0
 11 12  4  0  0  0  0
  8 13  4  0  0  0  0
 12 13  4  0  0  0  0
  7 14  4  0  0  0  0
  4 15  4  0  0  0  0
 14 15  4  0  0  0  0
  1 16  1  0  0  0  0
  1 17  1  0  0  0  0
  2 18  1  0  0  0  0
  3 19  1  0  0  0  0
  3 20  1  0  0  0  0
  5 21  1  0  0  0  0
  6 22  1  0  0  0  0
  9 23  1  0  0  0  0
 10 24  1  0  0  0  0
 11 25  1  0  0  0  0
 12 26  1  0  0  0  0
 13 27  1  0  0  0  0
 14 28  1  0  0  0  0
 15 29  1  0  0  0  0
M  END
