
  xtb     03172200223D
 xtb: 6.3.3 (4ae9cef)
 72 78  0     0  0            999 V2000
   -3.6899   -4.0779   -1.6153 C   0  0  0  0  0  0  0  0  0  0  0  0
   -3.2635   -4.9193   -0.6288 C   0  0  0  0  0  0  0  0  0  0  0  0
   -2.3429   -4.4623    0.3241 C   0  0  0  0  0  0  0  0  0  0  0  0
   -1.8654   -3.1829    0.2756 C   0  0  0  0  0  0  0  0  0  0  0  0
   -2.2735   -2.2859   -0.7364 C   0  0  0  0  0  0  0  0  0  0  0  0
   -3.2089   -2.7543   -1.7006 C   0  0  0  0  0  0  0  0  0  0  0  0
   -3.6315   -1.9019   -2.7410 C   0  0  0  0  0  0  0  0  0  0  0  0
   -3.1292   -0.6375   -2.8507 C   0  0  0  0  0  0  0  0  0  0  0  0
   -2.1900   -0.1783   -1.9206 C   0  0  0  0  0  0  0  0  0  0  0  0
   -1.7794   -0.9602   -0.8703 C   0  0  0  0  0  0  0  0  0  0  0  0
   -0.7374   -0.4188    0.0705 C   0  0  0  0  0  0  0  0  0  0  0  0
    0.6827   -0.4962   -0.5373 C   0  0  0  0  0  0  0  0  0  0  0  0
    1.4284   -1.7036   -0.0281 C   0  0  0  0  0  0  0  0  0  0  0  0
    2.1836   -1.6081    1.1117 C   0  0  0  0  0  0  0  0  0  0  0  0
    2.8337   -2.7234    1.6544 C   0  0  0  0  0  0  0  0  0  0  0  0
    2.6918   -3.9465    1.0669 C   0  0  0  0  0  0  0  0  0  0  0  0
    1.9110   -4.0964   -0.0978 C   0  0  0  0  0  0  0  0  0  0  0  0
    1.2815   -2.9603   -0.6777 C   0  0  0  0  0  0  0  0  0  0  0  0
    0.5301   -3.1543   -1.8578 C   0  0  0  0  0  0  0  0  0  0  0  0
    0.3785   -4.3970   -2.4062 C   0  0  0  0  0  0  0  0  0  0  0  0
    0.9779   -5.5173   -1.8153 C   0  0  0  0  0  0  0  0  0  0  0  0
    1.7372   -5.3643   -0.6912 C   0  0  0  0  0  0  0  0  0  0  0  0
    1.2883    0.7837   -0.1780 N   0  0  0  0  0  0  0  0  0  0  0  0
    2.3965    1.2109   -0.8424 C   0  0  0  0  0  0  0  0  0  0  0  0
    2.7532    2.6520   -0.6244 C   0  0  0  0  0  0  0  0  0  0  0  0
    3.7065    3.0488    0.2984 C   0  0  0  0  0  0  0  0  0  0  0  0
    4.6374    1.6053    1.5297 I   0  0  0  0  0  0  0  0  0  0  0  0
    4.0500    4.3817    0.4394 C   0  0  0  0  0  0  0  0  0  0  0  0
    3.4357    5.3320   -0.3571 C   0  0  0  0  0  0  0  0  0  0  0  0
    2.4902    4.9504   -1.2943 C   0  0  0  0  0  0  0  0  0  0  0  0
    2.1557    3.6156   -1.4309 C   0  0  0  0  0  0  0  0  0  0  0  0
    3.0281    0.4846   -1.5741 O   0  0  0  0  0  0  0  0  0  0  0  0
    0.3816    1.6113    0.5769 C   0  0  0  0  0  0  0  0  0  0  0  0
    0.7475    1.5946    2.0785 C   0  0  0  0  0  0  0  0  0  0  0  0
    1.5182    2.6325    2.3949 O   0  0  0  0  0  0  0  0  0  0  0  0
    0.3858    0.7616    2.8579 O   0  0  0  0  0  0  0  0  0  0  0  0
   -0.9065    1.0037    0.3633 N   0  0  0  0  0  0  0  0  0  0  0  0
   -2.0612    1.4728    0.9146 C   0  0  0  0  0  0  0  0  0  0  0  0
   -1.9452    2.8540    1.4984 C   0  0  0  0  0  0  0  0  0  0  0  0
   -1.9745    2.9688    2.8844 C   0  0  0  0  0  0  0  0  0  0  0  0
   -1.8873    4.2092    3.4903 C   0  0  0  0  0  0  0  0  0  0  0  0
   -1.7868    5.3517    2.7144 C   0  0  0  0  0  0  0  0  0  0  0  0
   -1.7814    5.2556    1.3339 C   0  0  0  0  0  0  0  0  0  0  0  0
   -1.8617    4.0099    0.7374 C   0  0  0  0  0  0  0  0  0  0  0  0
   -1.8582    3.8972   -1.3744 I   0  0  0  0  0  0  0  0  0  0  0  0
   -3.0893    0.8403    0.9472 O   0  0  0  0  0  0  0  0  0  0  0  0
   -4.4018   -4.4141   -2.3559 H   0  0  0  0  0  0  0  0  0  0  0  0
   -3.6305   -5.9335   -0.5739 H   0  0  0  0  0  0  0  0  0  0  0  0
   -2.0085   -5.1317    1.1029 H   0  0  0  0  0  0  0  0  0  0  0  0
   -1.1542   -2.8719    1.0245 H   0  0  0  0  0  0  0  0  0  0  0  0
   -4.3527   -2.2731   -3.4548 H   0  0  0  0  0  0  0  0  0  0  0  0
   -3.4421    0.0159   -3.6512 H   0  0  0  0  0  0  0  0  0  0  0  0
   -1.7887    0.8177   -2.0360 H   0  0  0  0  0  0  0  0  0  0  0  0
   -0.7579   -0.9557    1.0251 H   0  0  0  0  0  0  0  0  0  0  0  0
    0.6367   -0.5249   -1.6320 H   0  0  0  0  0  0  0  0  0  0  0  0
    2.2853   -0.6590    1.6144 H   0  0  0  0  0  0  0  0  0  0  0  0
    3.4328   -2.6010    2.5440 H   0  0  0  0  0  0  0  0  0  0  0  0
    3.1715   -4.8194    1.4855 H   0  0  0  0  0  0  0  0  0  0  0  0
    0.0590   -2.3165   -2.3458 H   0  0  0  0  0  0  0  0  0  0  0  0
   -0.2095   -4.5197   -3.3036 H   0  0  0  0  0  0  0  0  0  0  0  0
    0.8415   -6.4927   -2.2585 H   0  0  0  0  0  0  0  0  0  0  0  0
    2.2184   -6.2161   -0.2319 H   0  0  0  0  0  0  0  0  0  0  0  0
    4.7943    4.6758    1.1633 H   0  0  0  0  0  0  0  0  0  0  0  0
    3.7042    6.3716   -0.2469 H   0  0  0  0  0  0  0  0  0  0  0  0
    2.0149    5.6880   -1.9220 H   0  0  0  0  0  0  0  0  0  0  0  0
    1.4300    3.3088   -2.1702 H   0  0  0  0  0  0  0  0  0  0  0  0
    0.4238    2.6542    0.2364 H   0  0  0  0  0  0  0  0  0  0  0  0
    1.7964    2.5935    3.3265 H   0  0  0  0  0  0  0  0  0  0  0  0
   -2.0644    2.0699    3.4758 H   0  0  0  0  0  0  0  0  0  0  0  0
   -1.9047    4.2835    4.5667 H   0  0  0  0  0  0  0  0  0  0  0  0
   -1.7219    6.3235    3.1793 H   0  0  0  0  0  0  0  0  0  0  0  0
   -1.7199    6.1453    0.7261 H   0  0  0  0  0  0  0  0  0  0  0  0
  1  2  2  0  0  0  0
  2  3  4  0  0  0  0
  3  4  2  0  0  0  0
  4  5  4  0  0  0  0
  1  6  4  0  0  0  0
  5  6  4  0  0  0  0
  6  7  4  0  0  0  0
  7  8  2  0  0  0  0
  8  9  4  0  0  0  0
  5 10  4  0  0  0  0
  9 10  2  0  0  0  0
 10 11  1  0  0  0  0
 11 12  1  0  0  0  0
 12 13  1  0  0  0  0
 13 14  2  0  0  0  0
 14 15  4  0  0  0  0
 15 16  2  0  0  0  0
 16 17  4  0  0  0  0
 13 18  4  0  0  0  0
 17 18  4  0  0  0  0
 18 19  4  0  0  0  0
 19 20  2  0  0  0  0
 20 21  4  0  0  0  0
 17 22  4  0  0  0  0
 21 22  2  0  0  0  0
 12 23  1  0  0  0  0
 23 24  4  0  0  0  0
 24 25  1  0  0  0  0
 25 26  4  0  0  0  0
 26 27  1  0  0  0  0
 26 28  4  0  0  0  0
 28 29  4  0  0  0  0
 29 30  4  0  0  0  0
 25 31  4  0  0  0  0
 30 31  4  0  0  0  0
 24 32  2  0  0  0  0
 23 33  1  0  0  0  0
 33 34  1  0  0  0  0
 34 35  1  0  0  0  0
 34 36  2  0  0  0  0
 11 37  1  0  0  0  0
 33 37  1  0  0  0  0
 37 38  1  0  0  0  0
 38 39  1  0  0  0  0
 39 40  4  0  0  0  0
 40 41  4  0  0  0  0
 41 42  4  0  0  0  0
 42 43  4  0  0  0  0
 39 44  4  0  0  0  0
 43 44  4  0  0  0  0
 44 45  1  0  0  0  0
 38 46  2  0  0  0  0
  1 47  1  0  0  0  0
  2 48  1  0  0  0  0
  3 49  1  0  0  0  0
  4 50  1  0  0  0  0
  7 51  1  0  0  0  0
  8 52  1  0  0  0  0
  9 53  1  0  0  0  0
 11 54  1  0  0  0  0
 12 55  1  0  0  0  0
 14 56  1  0  0  0  0
 15 57  1  0  0  0  0
 16 58  1  0  0  0  0
 19 59  1  0  0  0  0
 20 60  1  0  0  0  0
 21 61  1  0  0  0  0
 22 62  1  0  0  0  0
 28 63  1  0  0  0  0
 29 64  1  0  0  0  0
 30 65  1  0  0  0  0
 31 66  1  0  0  0  0
 33 67  1  0  0  0  0
 35 68  1  0  0  0  0
 40 69  1  0  0  0  0
 41 70  1  0  0  0  0
 42 71  1  0  0  0  0
 43 72  1  0  0  0  0
M  END
