
  xtb     03162222063D
 xtb: 6.3.3 (4ae9cef)
 74 78  0     0  0            999 V2000
   -2.4712   -0.7907   -1.6466 C   0  0  0  0  0  0  0  0  0  0  0  0
   -1.8598    0.1576   -2.4134 O   0  0  0  0  0  0  0  0  0  0  0  0
   -2.5519    0.6663   -3.5314 C   0  0  0  0  0  0  0  0  0  0  0  0
   -3.6410   -1.4461   -2.0126 C   0  0  0  0  0  0  0  0  0  0  0  0
   -4.2066   -2.3927   -1.1761 C   0  0  0  0  0  0  0  0  0  0  0  0
   -3.6118   -2.7032    0.0310 C   0  0  0  0  0  0  0  0  0  0  0  0
   -2.4460   -2.0553    0.3986 C   0  0  0  0  0  0  0  0  0  0  0  0
   -1.8676   -1.0964   -0.4176 C   0  0  0  0  0  0  0  0  0  0  0  0
   -0.5970   -0.4310    0.0304 C   0  0  0  0  0  0  0  0  0  0  0  0
    0.6433   -0.9318   -0.7471 C   0  0  0  0  0  0  0  0  0  0  0  0
    1.2233   -2.2029   -0.1995 C   0  0  0  0  0  0  0  0  0  0  0  0
    1.2936   -3.3198   -1.0147 C   0  0  0  0  0  0  0  0  0  0  0  0
    1.8064   -4.5180   -0.5508 C   0  0  0  0  0  0  0  0  0  0  0  0
    2.2629   -4.5985    0.7502 C   0  0  0  0  0  0  0  0  0  0  0  0
    2.1972   -3.4976    1.5854 C   0  0  0  0  0  0  0  0  0  0  0  0
    1.6756   -2.2929    1.1274 C   0  0  0  0  0  0  0  0  0  0  0  0
    1.5548   -1.1766    1.8892 O   0  0  0  0  0  0  0  0  0  0  0  0
    1.9450   -1.2284    3.2423 C   0  0  0  0  0  0  0  0  0  0  0  0
    1.5247    0.2311   -0.6977 N   0  0  0  0  0  0  0  0  0  0  0  0
    2.8736    0.1932   -0.7521 C   0  0  0  0  0  0  0  0  0  0  0  0
    3.5298    1.5522   -0.8271 C   0  0  0  0  0  0  0  0  0  0  0  0
    3.9159    2.2711    0.3034 C   0  0  0  0  0  0  0  0  0  0  0  0
    3.6052    1.7276    1.6705 C   0  0  0  0  0  0  0  0  0  0  0  0
    4.1462    0.5209    1.8914 F   0  0  0  0  0  0  0  0  0  0  0  0
    4.0593    2.5170    2.6590 F   0  0  0  0  0  0  0  0  0  0  0  0
    2.2832    1.6036    1.8766 F   0  0  0  0  0  0  0  0  0  0  0  0
    4.5763    3.4861    0.1766 C   0  0  0  0  0  0  0  0  0  0  0  0
    4.8636    3.9864   -1.0804 C   0  0  0  0  0  0  0  0  0  0  0  0
    4.5049    3.2684   -2.2086 C   0  0  0  0  0  0  0  0  0  0  0  0
    3.8483    2.0571   -2.0816 C   0  0  0  0  0  0  0  0  0  0  0  0
    3.5311   -0.8213   -0.7907 O   0  0  0  0  0  0  0  0  0  0  0  0
    0.7003    1.3997   -0.8012 C   0  0  0  0  0  0  0  0  0  0  0  0
    0.4125    1.7857   -2.2676 C   0  0  0  0  0  0  0  0  0  0  0  0
    1.0572    0.9970   -3.1299 O   0  0  0  0  0  0  0  0  0  0  0  0
   -0.2944    2.6870   -2.6130 O   0  0  0  0  0  0  0  0  0  0  0  0
   -0.5435    1.0108   -0.1669 N   0  0  0  0  0  0  0  0  0  0  0  0
   -1.3310    1.9392    0.4239 C   0  0  0  0  0  0  0  0  0  0  0  0
   -2.6321    1.3890    0.9455 C   0  0  0  0  0  0  0  0  0  0  0  0
   -3.7328    1.5003    0.1018 C   0  0  0  0  0  0  0  0  0  0  0  0
   -4.9706    1.0219    0.4856 C   0  0  0  0  0  0  0  0  0  0  0  0
   -5.1333    0.4380    1.7316 C   0  0  0  0  0  0  0  0  0  0  0  0
   -4.0596    0.3552    2.5959 C   0  0  0  0  0  0  0  0  0  0  0  0
   -2.8122    0.8338    2.2067 C   0  0  0  0  0  0  0  0  0  0  0  0
   -1.6979    0.7063    3.2064 C   0  0  0  0  0  0  0  0  0  0  0  0
   -1.3792   -0.5931    3.4244 F   0  0  0  0  0  0  0  0  0  0  0  0
   -0.5623    1.3140    2.8672 F   0  0  0  0  0  0  0  0  0  0  0  0
   -2.0497    1.1898    4.4113 F   0  0  0  0  0  0  0  0  0  0  0  0
   -1.0730    3.1207    0.4376 O   0  0  0  0  0  0  0  0  0  0  0  0
   -3.5800    0.9376   -3.2775 H   0  0  0  0  0  0  0  0  0  0  0  0
   -2.5583   -0.0518   -4.3583 H   0  0  0  0  0  0  0  0  0  0  0  0
   -2.0152    1.5674   -3.8260 H   0  0  0  0  0  0  0  0  0  0  0  0
   -4.1163   -1.2320   -2.9565 H   0  0  0  0  0  0  0  0  0  0  0  0
   -5.1162   -2.8887   -1.4792 H   0  0  0  0  0  0  0  0  0  0  0  0
   -4.0490   -3.4423    0.6832 H   0  0  0  0  0  0  0  0  0  0  0  0
   -1.9735   -2.2914    1.3401 H   0  0  0  0  0  0  0  0  0  0  0  0
   -0.4388   -0.6474    1.0913 H   0  0  0  0  0  0  0  0  0  0  0  0
    0.3595   -1.0973   -1.7957 H   0  0  0  0  0  0  0  0  0  0  0  0
    0.9445   -3.2457   -2.0345 H   0  0  0  0  0  0  0  0  0  0  0  0
    1.8560   -5.3758   -1.2034 H   0  0  0  0  0  0  0  0  0  0  0  0
    2.6768   -5.5226    1.1256 H   0  0  0  0  0  0  0  0  0  0  0  0
    2.5647   -3.5829    2.5952 H   0  0  0  0  0  0  0  0  0  0  0  0
    1.3702   -1.9804    3.7923 H   0  0  0  0  0  0  0  0  0  0  0  0
    1.7223   -0.2415    3.6437 H   0  0  0  0  0  0  0  0  0  0  0  0
    3.0150   -1.4294    3.3417 H   0  0  0  0  0  0  0  0  0  0  0  0
    4.8641    4.0331    1.0609 H   0  0  0  0  0  0  0  0  0  0  0  0
    5.3748    4.9316   -1.1755 H   0  0  0  0  0  0  0  0  0  0  0  0
    4.7416    3.6505   -3.1900 H   0  0  0  0  0  0  0  0  0  0  0  0
    3.5818    1.4835   -2.9557 H   0  0  0  0  0  0  0  0  0  0  0  0
    1.1073    2.2840   -0.2923 H   0  0  0  0  0  0  0  0  0  0  0  0
    0.8420    1.2439   -4.0442 H   0  0  0  0  0  0  0  0  0  0  0  0
   -3.5965    1.9739   -0.8582 H   0  0  0  0  0  0  0  0  0  0  0  0
   -5.8124    1.1073   -0.1846 H   0  0  0  0  0  0  0  0  0  0  0  0
   -6.0972    0.0603    2.0347 H   0  0  0  0  0  0  0  0  0  0  0  0
   -4.1772   -0.0746    3.5792 H   0  0  0  0  0  0  0  0  0  0  0  0
  1  2  1  0  0  0  0
  2  3  1  0  0  0  0
  1  4  4  0  0  0  0
  4  5  4  0  0  0  0
  5  6  4  0  0  0  0
  6  7  4  0  0  0  0
  1  8  4  0  0  0  0
  7  8  4  0  0  0  0
  8  9  1  0  0  0  0
  9 10  1  0  0  0  0
 10 11  1  0  0  0  0
 11 12  4  0  0  0  0
 12 13  4  0  0  0  0
 13 14  4  0  0  0  0
 14 15  4  0  0  0  0
 11 16  4  0  0  0  0
 15 16  4  0  0  0  0
 16 17  1  0  0  0  0
 17 18  1  0  0  0  0
 10 19  1  0  0  0  0
 19 20  4  0  0  0  0
 20 21  1  0  0  0  0
 21 22  4  0  0  0  0
 22 23  1  0  0  0  0
 23 24  1  0  0  0  0
 23 25  1  0  0  0  0
 23 26  1  0  0  0  0
 22 27  4  0  0  0  0
 27 28  4  0  0  0  0
 28 29  4  0  0  0  0
 21 30  4  0  0  0  0
 29 30  4  0  0  0  0
 20 31  2  0  0  0  0
 19 32  1  0  0  0  0
 32 33  1  0  0  0  0
 33 34  1  0  0  0  0
 33 35  2  0  0  0  0
  9 36  1  0  0  0  0
 32 36  1  0  0  0  0
 36 37  4  0  0  0  0
 37 38  1  0  0  0  0
 38 39  4  0  0  0  0
 39 40  4  0  0  0  0
 40 41  4  0  0  0  0
 41 42  4  0  0  0  0
 38 43  4  0  0  0  0
 42 43  4  0  0  0  0
 43 44  1  0  0  0  0
 44 45  1  0  0  0  0
 44 46  1  0  0  0  0
 44 47  1  0  0  0  0
 37 48  2  0  0  0  0
  3 49  1  0  0  0  0
  3 50  1  0  0  0  0
  3 51  1  0  0  0  0
  4 52  1  0  0  0  0
  5 53  1  0  0  0  0
  6 54  1  0  0  0  0
  7 55  1  0  0  0  0
  9 56  1  0  0  0  0
 10 57  1  0  0  0  0
 12 58  1  0  0  0  0
 13 59  1  0  0  0  0
 14 60  1  0  0  0  0
 15 61  1  0  0  0  0
 18 62  1  0  0  0  0
 18 63  1  0  0  0  0
 18 64  1  0  0  0  0
 27 65  1  0  0  0  0
 28 66  1  0  0  0  0
 29 67  1  0  0  0  0
 30 68  1  0  0  0  0
 32 69  1  0  0  0  0
 34 70  1  0  0  0  0
 39 71  1  0  0  0  0
 40 72  1  0  0  0  0
 41 73  1  0  0  0  0
 42 74  1  0  0  0  0
M  END
