66

C      2.473555   -1.324565   -1.716425
C      3.376433   -2.390748   -1.751986
C      3.911674   -2.916728   -0.568126
C      4.825009   -3.983918   -0.587370
C      5.352634   -4.492121    0.600716
C      4.973414   -3.940574    1.822027
C      4.066910   -2.879409    1.857043
C      3.527391   -2.356127    0.670180
C      2.618971   -1.282860    0.689576
C      2.083408   -0.752509   -0.497234
C      1.082563    0.391272   -0.496218
C     -0.357987   -0.098567   -0.185464
C     -1.244345   -0.671315   -1.273622
C     -2.320656   -1.501077   -0.900504
C     -3.188880   -2.060960   -1.853603
C     -4.258741   -2.891305   -1.477512
C     -5.108806   -3.440323   -2.439428
C     -4.899504   -3.167482   -3.788747
C     -3.842832   -2.341898   -4.177815
C     -2.980878   -1.781593   -3.221200
C     -1.920294   -0.943615   -3.593887
C     -1.067534   -0.390732   -2.633074
N     -0.968480    1.003426    0.576055
C     -1.623548    2.012324   -0.142736
C     -2.798649    2.541014    0.534858
C     -3.507385    2.019640    1.605956
C     -4.601181    2.850725    1.993166
C     -4.672408    3.970758    1.207350
Br    -5.997979    5.329004    1.429618
S     -3.473397    4.031454    0.015831
O     -1.174403    2.438378   -1.204666
C      0.119787    1.578266    1.361466
C      0.273610    0.894248    2.749213
O     -0.814933    0.203265    3.155182
O      1.243159    0.961384    3.487584
N      1.320264    1.390693    0.553772
C      2.379837    2.279589    0.441679
C      2.359605    3.447711    1.295452
C      1.675729    4.634954    1.103420
C      1.914401    5.563083    2.159795
C      2.780426    5.044490    3.088965
Br     3.331103    5.989576    4.654532
S      3.334005    3.490702    2.699565
O      3.270447    2.111430   -0.390261
H      2.088350   -0.938609   -2.658446
H      3.665513   -2.803613   -2.716944
H      5.137525   -4.424216   -1.532880
H      6.063369   -5.313767    0.569413
H      5.386130   -4.331121    2.747903
H      3.789247   -2.456236    2.821018
H      2.346272   -0.850301    1.649245
H      1.140172    0.934667   -1.446473
H     -0.261394   -0.908414    0.555703
H     -2.486863   -1.713435    0.155396
H     -4.436988   -3.117352   -0.427861
H     -5.932673   -4.081199   -2.133811
H     -5.558718   -3.594047   -4.540207
H     -3.695337   -2.138977   -5.236736
H     -1.754315   -0.702434   -4.642728
H     -0.284098    0.280659   -2.977453
H     -3.266168    1.075986    2.079872
H     -5.285087    2.631901    2.804398
H     -0.078158    2.635258    1.565280
H     -0.565315   -0.131159    4.042821
H      1.042728    4.826154    0.244269
H      1.474291    6.551296    2.225100
