72

C      2.066827    3.880390   -0.972202
C      3.040471    4.479865   -1.773419
C      4.048781    3.704725   -2.336856
C      4.090476    2.335855   -2.086666
C      3.118163    1.736165   -1.280466
C      2.075779    2.492108   -0.726729
C      0.974287    1.905674    0.153387
C     -0.435532    2.089672   -0.487843
C     -1.473058    2.619286    0.502169
C     -1.556008    2.171415    1.831025
C     -2.529514    2.675092    2.698230
C     -3.439505    3.628971    2.249422
C     -3.379841    4.077503    0.933225
C     -2.406088    3.576957    0.066843
N     -0.794422    0.752704   -0.987653
C     -1.960699    0.533642   -1.702178
C     -2.456033   -0.853102   -1.835002
C     -3.372908   -1.392381   -0.914086
C     -3.966826   -0.597509    0.224963
C     -3.404626   -1.010503    1.575307
C     -3.779089   -2.726654   -1.088576
C     -3.307360   -3.488092   -2.159627
C     -2.436424   -2.924445   -3.087693
C     -2.019063   -1.604011   -2.933973
O     -2.585638    1.432305   -2.253368
C      0.130460   -0.264041   -0.494754
C      0.963233   -0.884410   -1.660695
O      0.894592   -0.189864   -2.828186
O      1.701311   -1.853981   -1.548752
N      1.045565    0.456342    0.383978
C      1.793230   -0.060394    1.425019
C      1.624596   -1.486043    1.784100
C      0.449980   -1.829720    2.469532
C      0.230799   -3.144835    2.864179
C      1.197498   -4.108867    2.602560
C      2.388391   -3.759697    1.958150
C      2.627506   -2.442060    1.532054
C      3.941777   -2.042073    0.894822
C      4.676689   -3.138344    0.130810
O      2.549390    0.619141    2.112288
H      1.299468    4.514548   -0.530233
H      3.016547    5.553452   -1.948005
H      4.810660    4.167915   -2.959288
H      4.886602    1.729082   -2.512889
H      3.207133    0.670177   -1.093085
H      1.063537    2.417117    1.121666
H     -0.407875    2.762293   -1.353449
H     -0.868778    1.423354    2.218170
H     -2.577027    2.320636    3.724897
H     -4.198604    4.017354    2.923421
H     -4.094606    4.815867    0.575892
H     -2.394986    3.928554   -0.965291
H     -3.817191    0.476393    0.081189
H     -5.054882   -0.744133    0.222667
H     -3.877669   -0.434183    2.375786
H     -3.576039   -2.071556    1.780777
H     -2.328416   -0.831322    1.617796
H     -4.484518   -3.178692   -0.394067
H     -3.636959   -4.517457   -2.281616
H     -2.087720   -3.510684   -3.934474
H     -1.361124   -1.168303   -3.682282
H     -0.417360   -1.059916    0.012018
H      0.372772    0.633842   -2.732699
H     -0.283159   -1.068513    2.715325
H     -0.680367   -3.413553    3.390703
H      1.038426   -5.136753    2.920035
H      3.129073   -4.539754    1.806871
H      4.599064   -1.654534    1.682909
H      3.772741   -1.225590    0.186180
H      4.030000   -3.603992   -0.619976
H      5.547003   -2.717265   -0.382899
H      5.047086   -3.921169    0.800615
