
  xtb     03172201043D
 xtb: 6.3.3 (4ae9cef)
 72 76  0     0  0            999 V2000
    2.0664    3.6146   -1.3369 C   0  0  0  0  0  0  0  0  0  0  0  0
    3.0628    4.0290   -2.2013 C   0  0  0  0  0  0  0  0  0  0  0  0
    4.0878    3.1641   -2.5467 C   0  0  0  0  0  0  0  0  0  0  0  0
    4.1181    1.8896   -2.0104 C   0  0  0  0  0  0  0  0  0  0  0  0
    3.1207    1.4728   -1.1458 C   0  0  0  0  0  0  0  0  0  0  0  0
    2.0773    2.3256   -0.8144 C   0  0  0  0  0  0  0  0  0  0  0  0
    0.9751    1.9075    0.1382 C   0  0  0  0  0  0  0  0  0  0  0  0
   -0.4415    2.1355   -0.4197 C   0  0  0  0  0  0  0  0  0  0  0  0
   -1.4363    2.6167    0.6130 C   0  0  0  0  0  0  0  0  0  0  0  0
   -1.4278    2.1172    1.9100 C   0  0  0  0  0  0  0  0  0  0  0  0
   -2.3790    2.5323    2.8252 C   0  0  0  0  0  0  0  0  0  0  0  0
   -3.3520    3.4433    2.4528 C   0  0  0  0  0  0  0  0  0  0  0  0
   -3.3638    3.9467    1.1635 C   0  0  0  0  0  0  0  0  0  0  0  0
   -2.4097    3.5378    0.2490 C   0  0  0  0  0  0  0  0  0  0  0  0
   -0.8232    0.8000   -0.9040 N   0  0  0  0  0  0  0  0  0  0  0  0
   -2.0081    0.5936   -1.5541 C   0  0  0  0  0  0  0  0  0  0  0  0
   -2.3805   -0.8431   -1.7428 C   0  0  0  0  0  0  0  0  0  0  0  0
   -3.3879   -1.3992   -0.9518 C   0  0  0  0  0  0  0  0  0  0  0  0
   -4.1020   -0.5978    0.1006 C   0  0  0  0  0  0  0  0  0  0  0  0
   -3.4192   -0.7380    1.4611 C   0  0  0  0  0  0  0  0  0  0  0  0
   -3.7121   -2.7376   -1.1378 C   0  0  0  0  0  0  0  0  0  0  0  0
   -3.0773   -3.5034   -2.0978 C   0  0  0  0  0  0  0  0  0  0  0  0
   -2.1148   -2.9303   -2.9105 C   0  0  0  0  0  0  0  0  0  0  0  0
   -1.7701   -1.6028   -2.7347 C   0  0  0  0  0  0  0  0  0  0  0  0
   -2.6790    1.5255   -1.9435 O   0  0  0  0  0  0  0  0  0  0  0  0
    0.1072   -0.2162   -0.4719 C   0  0  0  0  0  0  0  0  0  0  0  0
    0.9471   -0.7665   -1.6599 C   0  0  0  0  0  0  0  0  0  0  0  0
    1.0297    0.0316   -2.7212 O   0  0  0  0  0  0  0  0  0  0  0  0
    1.5017   -1.8235   -1.6003 O   0  0  0  0  0  0  0  0  0  0  0  0
    0.9773    0.4837    0.4427 N   0  0  0  0  0  0  0  0  0  0  0  0
    1.6474   -0.0023    1.5293 C   0  0  0  0  0  0  0  0  0  0  0  0
    1.5078   -1.4659    1.7870 C   0  0  0  0  0  0  0  0  0  0  0  0
    0.2744   -1.9504    2.2145 C   0  0  0  0  0  0  0  0  0  0  0  0
    0.1086   -3.2885    2.5130 C   0  0  0  0  0  0  0  0  0  0  0  0
    1.1848   -4.1519    2.3949 C   0  0  0  0  0  0  0  0  0  0  0  0
    2.4170   -3.6663    2.0035 C   0  0  0  0  0  0  0  0  0  0  0  0
    2.6057   -2.3219    1.7007 C   0  0  0  0  0  0  0  0  0  0  0  0
    3.9672   -1.8431    1.2843 C   0  0  0  0  0  0  0  0  0  0  0  0
    4.3523   -2.3799   -0.0958 C   0  0  0  0  0  0  0  0  0  0  0  0
    2.2930    0.7448    2.2353 O   0  0  0  0  0  0  0  0  0  0  0  0
    1.2817    4.3018   -1.0541 H   0  0  0  0  0  0  0  0  0  0  0  0
    3.0408    5.0315   -2.6016 H   0  0  0  0  0  0  0  0  0  0  0  0
    4.8646    3.4876   -3.2227 H   0  0  0  0  0  0  0  0  0  0  0  0
    4.9198    1.2123   -2.2619 H   0  0  0  0  0  0  0  0  0  0  0  0
    3.1661    0.4789   -0.7276 H   0  0  0  0  0  0  0  0  0  0  0  0
    1.1229    2.4496    1.0802 H   0  0  0  0  0  0  0  0  0  0  0  0
   -0.4479    2.8310   -1.2662 H   0  0  0  0  0  0  0  0  0  0  0  0
   -0.6724    1.4104    2.2216 H   0  0  0  0  0  0  0  0  0  0  0  0
   -2.3586    2.1390    3.8307 H   0  0  0  0  0  0  0  0  0  0  0  0
   -4.0976    3.7609    3.1665 H   0  0  0  0  0  0  0  0  0  0  0  0
   -4.1194    4.6583    0.8663 H   0  0  0  0  0  0  0  0  0  0  0  0
   -2.4304    3.9211   -0.7596 H   0  0  0  0  0  0  0  0  0  0  0  0
   -4.1310    0.4552   -0.1820 H   0  0  0  0  0  0  0  0  0  0  0  0
   -5.1304   -0.9559    0.1802 H   0  0  0  0  0  0  0  0  0  0  0  0
   -3.9912   -0.2184    2.2259 H   0  0  0  0  0  0  0  0  0  0  0  0
   -3.3317   -1.7866    1.7390 H   0  0  0  0  0  0  0  0  0  0  0  0
   -2.4255   -0.2988    1.4289 H   0  0  0  0  0  0  0  0  0  0  0  0
   -4.4839   -3.1781   -0.5230 H   0  0  0  0  0  0  0  0  0  0  0  0
   -3.3452   -4.5416   -2.2243 H   0  0  0  0  0  0  0  0  0  0  0  0
   -1.6320   -3.5111   -3.6809 H   0  0  0  0  0  0  0  0  0  0  0  0
   -1.0422   -1.1540   -3.3931 H   0  0  0  0  0  0  0  0  0  0  0  0
   -0.3781   -1.0764    0.0071 H   0  0  0  0  0  0  0  0  0  0  0  0
    0.5195    0.8507   -2.6029 H   0  0  0  0  0  0  0  0  0  0  0  0
   -0.5550   -1.2685    2.3429 H   0  0  0  0  0  0  0  0  0  0  0  0
   -0.8526   -3.6527    2.8435 H   0  0  0  0  0  0  0  0  0  0  0  0
    1.0648   -5.2003    2.6242 H   0  0  0  0  0  0  0  0  0  0  0  0
    3.2601   -4.3384    1.9404 H   0  0  0  0  0  0  0  0  0  0  0  0
    4.6996   -2.1887    2.0188 H   0  0  0  0  0  0  0  0  0  0  0  0
    3.9972   -0.7535    1.2805 H   0  0  0  0  0  0  0  0  0  0  0  0
    3.5883   -2.1366   -0.8297 H   0  0  0  0  0  0  0  0  0  0  0  0
    5.2995   -1.9504   -0.4139 H   0  0  0  0  0  0  0  0  0  0  0  0
    4.4555   -3.4619   -0.0708 H   0  0  0  0  0  0  0  0  0  0  0  0
  1  2  4  0  0  0  0
  2  3  4  0  0  0  0
  3  4  4  0  0  0  0
  4  5  4  0  0  0  0
  1  6  4  0  0  0  0
  5  6  4  0  0  0  0
  6  7  1  0  0  0  0
  7  8  1  0  0  0  0
  8  9  1  0  0  0  0
  9 10  4  0  0  0  0
 10 11  4  0  0  0  0
 11 12  4  0  0  0  0
 12 13  4  0  0  0  0
  9 14  4  0  0  0  0
 13 14  4  0  0  0  0
  8 15  1  0  0  0  0
 15 16  1  0  0  0  0
 16 17  1  0  0  0  0
 17 18  4  0  0  0  0
 18 19  1  0  0  0  0
 19 20  1  0  0  0  0
 18 21  4  0  0  0  0
 21 22  4  0  0  0  0
 22 23  4  0  0  0  0
 17 24  4  0  0  0  0
 23 24  4  0  0  0  0
 16 25  2  0  0  0  0
 15 26  1  0  0  0  0
 26 27  1  0  0  0  0
 27 28  1  0  0  0  0
 27 29  2  0  0  0  0
  7 30  1  0  0  0  0
 26 30  1  0  0  0  0
 30 31  1  0  0  0  0
 31 32  1  0  0  0  0
 32 33  4  0  0  0  0
 33 34  4  0  0  0  0
 34 35  4  0  0  0  0
 35 36  4  0  0  0  0
 32 37  4  0  0  0  0
 36 37  4  0  0  0  0
 37 38  1  0  0  0  0
 38 39  1  0  0  0  0
 31 40  2  0  0  0  0
  1 41  1  0  0  0  0
  2 42  1  0  0  0  0
  3 43  1  0  0  0  0
  4 44  1  0  0  0  0
  5 45  1  0  0  0  0
  7 46  1  0  0  0  0
  8 47  1  0  0  0  0
 10 48  1  0  0  0  0
 11 49  1  0  0  0  0
 12 50  1  0  0  0  0
 13 51  1  0  0  0  0
 14 52  1  0  0  0  0
 19 53  1  0  0  0  0
 19 54  1  0  0  0  0
 20 55  1  0  0  0  0
 20 56  1  0  0  0  0
 20 57  1  0  0  0  0
 21 58  1  0  0  0  0
 22 59  1  0  0  0  0
 23 60  1  0  0  0  0
 24 61  1  0  0  0  0
 26 62  1  0  0  0  0
 28 63  1  0  0  0  0
 33 64  1  0  0  0  0
 34 65  1  0  0  0  0
 35 66  1  0  0  0  0
 36 67  1  0  0  0  0
 38 68  1  0  0  0  0
 38 69  1  0  0  0  0
 39 70  1  0  0  0  0
 39 71  1  0  0  0  0
 39 72  1  0  0  0  0
M  END
