
  xtb     03172202103D
 xtb: 6.3.3 (4ae9cef)
 60 64  0     0  0            999 V2000
   -2.7462   -3.2233   -0.6395 C   0  0  0  0  0  0  0  0  0  0  0  0
   -3.8742   -3.4112   -1.4184 C   0  0  0  0  0  0  0  0  0  0  0  0
   -4.2696   -2.4342   -2.3152 C   0  0  0  0  0  0  0  0  0  0  0  0
   -3.5339   -1.2669   -2.4302 C   0  0  0  0  0  0  0  0  0  0  0  0
   -2.4063   -1.0795   -1.6530 C   0  0  0  0  0  0  0  0  0  0  0  0
   -2.0036   -2.0577   -0.7521 C   0  0  0  0  0  0  0  0  0  0  0  0
   -0.7644   -1.8515    0.0800 C   0  0  0  0  0  0  0  0  0  0  0  0
    0.5257   -1.7966   -0.7852 C   0  0  0  0  0  0  0  0  0  0  0  0
    1.6340   -2.6790   -0.2625 C   0  0  0  0  0  0  0  0  0  0  0  0
    2.9221   -2.1937   -0.0833 C   0  0  0  0  0  0  0  0  0  0  0  0
    3.9206   -3.0191    0.4054 C   0  0  0  0  0  0  0  0  0  0  0  0
    3.6462   -4.3408    0.7082 C   0  0  0  0  0  0  0  0  0  0  0  0
    2.3705   -4.8395    0.5026 C   0  0  0  0  0  0  0  0  0  0  0  0
    1.3718   -4.0152    0.0177 C   0  0  0  0  0  0  0  0  0  0  0  0
    0.8849   -0.3855   -0.7835 N   0  0  0  0  0  0  0  0  0  0  0  0
    0.9888    0.2965   -1.9706 C   0  0  0  0  0  0  0  0  0  0  0  0
    1.0498    1.7717   -1.8577 C   0  0  0  0  0  0  0  0  0  0  0  0
    0.3365    2.5743   -2.6983 C   0  0  0  0  0  0  0  0  0  0  0  0
    0.5531    4.2377   -2.3460 S   0  0  0  0  0  0  0  0  0  0  0  0
    1.6580    3.8640   -1.0561 C   0  0  0  0  0  0  0  0  0  0  0  0
    2.3060    4.9479   -0.2730 C   0  0  0  0  0  0  0  0  0  0  0  0
    1.8152    2.5227   -0.9206 C   0  0  0  0  0  0  0  0  0  0  0  0
    1.0279   -0.2878   -3.0320 O   0  0  0  0  0  0  0  0  0  0  0  0
    0.4242    0.1805    0.4560 C   0  0  0  0  0  0  0  0  0  0  0  0
    1.4800   -0.0289    1.5640 C   0  0  0  0  0  0  0  0  0  0  0  0
    1.1638   -1.0172    2.3880 O   0  0  0  0  0  0  0  0  0  0  0  0
    2.4688    0.6434    1.6684 O   0  0  0  0  0  0  0  0  0  0  0  0
   -0.7908   -0.5433    0.7247 N   0  0  0  0  0  0  0  0  0  0  0  0
   -1.7494   -0.1908    1.6206 C   0  0  0  0  0  0  0  0  0  0  0  0
   -1.6020    1.2107    2.1091 C   0  0  0  0  0  0  0  0  0  0  0  0
   -1.3935    1.5478    3.4077 C   0  0  0  0  0  0  0  0  0  0  0  0
   -1.2321    3.2466    3.6183 S   0  0  0  0  0  0  0  0  0  0  0  0
   -1.4731    3.5242    1.9210 C   0  0  0  0  0  0  0  0  0  0  0  0
   -1.4651    4.9036    1.3677 C   0  0  0  0  0  0  0  0  0  0  0  0
   -1.6550    2.3523    1.2599 C   0  0  0  0  0  0  0  0  0  0  0  0
   -2.6385   -0.9396    1.9585 O   0  0  0  0  0  0  0  0  0  0  0  0
   -2.4467   -3.9814    0.0692 H   0  0  0  0  0  0  0  0  0  0  0  0
   -4.4484   -4.3206   -1.3210 H   0  0  0  0  0  0  0  0  0  0  0  0
   -5.1514   -2.5793   -2.9214 H   0  0  0  0  0  0  0  0  0  0  0  0
   -3.8396   -0.5004   -3.1270 H   0  0  0  0  0  0  0  0  0  0  0  0
   -1.8347   -0.1666   -1.7479 H   0  0  0  0  0  0  0  0  0  0  0  0
   -0.6962   -2.6301    0.8476 H   0  0  0  0  0  0  0  0  0  0  0  0
    0.3104   -2.0780   -1.8241 H   0  0  0  0  0  0  0  0  0  0  0  0
    3.1522   -1.1691   -0.3342 H   0  0  0  0  0  0  0  0  0  0  0  0
    4.9163   -2.6251    0.5453 H   0  0  0  0  0  0  0  0  0  0  0  0
    4.4249   -4.9833    1.0912 H   0  0  0  0  0  0  0  0  0  0  0  0
    2.1534   -5.8752    0.7178 H   0  0  0  0  0  0  0  0  0  0  0  0
    0.3834   -4.4142   -0.1571 H   0  0  0  0  0  0  0  0  0  0  0  0
   -0.3153    2.2714   -3.4933 H   0  0  0  0  0  0  0  0  0  0  0  0
    2.7238    4.5404    0.6445 H   0  0  0  0  0  0  0  0  0  0  0  0
    3.1124    5.4043   -0.8479 H   0  0  0  0  0  0  0  0  0  0  0  0
    1.5891    5.7289   -0.0269 H   0  0  0  0  0  0  0  0  0  0  0  0
    2.4681    2.0782   -0.1910 H   0  0  0  0  0  0  0  0  0  0  0  0
    0.2611    1.2596    0.3647 H   0  0  0  0  0  0  0  0  0  0  0  0
    1.8487   -1.1442    3.0649 H   0  0  0  0  0  0  0  0  0  0  0  0
   -1.3140    0.8949    4.2534 H   0  0  0  0  0  0  0  0  0  0  0  0
   -0.5765    5.4405    1.6948 H   0  0  0  0  0  0  0  0  0  0  0  0
   -1.4819    4.8705    0.2809 H   0  0  0  0  0  0  0  0  0  0  0  0
   -2.3360    5.4601    1.7134 H   0  0  0  0  0  0  0  0  0  0  0  0
   -1.8535    2.2962    0.2032 H   0  0  0  0  0  0  0  0  0  0  0  0
  1  2  4  0  0  0  0
  2  3  4  0  0  0  0
  3  4  4  0  0  0  0
  4  5  4  0  0  0  0
  1  6  4  0  0  0  0
  5  6  4  0  0  0  0
  6  7  1  0  0  0  0
  7  8  1  0  0  0  0
  8  9  1  0  0  0  0
  9 10  4  0  0  0  0
 10 11  4  0  0  0  0
 11 12  4  0  0  0  0
 12 13  4  0  0  0  0
  9 14  4  0  0  0  0
 13 14  4  0  0  0  0
  8 15  1  0  0  0  0
 15 16  1  0  0  0  0
 16 17  1  0  0  0  0
 17 18  2  0  0  0  0
 18 19  1  0  0  0  0
 19 20  1  0  0  0  0
 20 21  1  0  0  0  0
 17 22  4  0  0  0  0
 20 22  2  0  0  0  0
 16 23  2  0  0  0  0
 15 24  1  0  0  0  0
 24 25  1  0  0  0  0
 25 26  1  0  0  0  0
 25 27  2  0  0  0  0
  7 28  1  0  0  0  0
 24 28  1  0  0  0  0
 28 29  4  0  0  0  0
 29 30  1  0  0  0  0
 30 31  2  0  0  0  0
 31 32  1  0  0  0  0
 32 33  1  0  0  0  0
 33 34  1  0  0  0  0
 30 35  4  0  0  0  0
 33 35  2  0  0  0  0
 29 36  2  0  0  0  0
  1 37  1  0  0  0  0
  2 38  1  0  0  0  0
  3 39  1  0  0  0  0
  4 40  1  0  0  0  0
  5 41  1  0  0  0  0
  7 42  1  0  0  0  0
  8 43  1  0  0  0  0
 10 44  1  0  0  0  0
 11 45  1  0  0  0  0
 12 46  1  0  0  0  0
 13 47  1  0  0  0  0
 14 48  1  0  0  0  0
 18 49  1  0  0  0  0
 21 50  1  0  0  0  0
 21 51  1  0  0  0  0
 21 52  1  0  0  0  0
 22 53  1  0  0  0  0
 24 54  1  0  0  0  0
 26 55  1  0  0  0  0
 31 56  1  0  0  0  0
 34 57  1  0  0  0  0
 34 58  1  0  0  0  0
 34 59  1  0  0  0  0
 35 60  1  0  0  0  0
M  END
