
  xtb     03172202173D
 xtb: 6.3.3 (4ae9cef)
 72 78  0     0  0            999 V2000
    2.2222   -4.4831   -3.0003 C   0  0  0  0  0  0  0  0  0  0  0  0
    2.4926   -3.6019   -4.0079 C   0  0  0  0  0  0  0  0  0  0  0  0
    2.0480   -2.2766   -3.9105 C   0  0  0  0  0  0  0  0  0  0  0  0
    1.3605   -1.8522   -2.8072 C   0  0  0  0  0  0  0  0  0  0  0  0
    1.0818   -2.7293   -1.7369 C   0  0  0  0  0  0  0  0  0  0  0  0
    1.5127   -4.0775   -1.8511 C   0  0  0  0  0  0  0  0  0  0  0  0
    1.2199   -4.9910   -0.8173 C   0  0  0  0  0  0  0  0  0  0  0  0
    0.5232   -4.5874    0.2829 C   0  0  0  0  0  0  0  0  0  0  0  0
    0.1165   -3.2518    0.4150 C   0  0  0  0  0  0  0  0  0  0  0  0
    0.4006   -2.3255   -0.5531 C   0  0  0  0  0  0  0  0  0  0  0  0
   -0.0440   -0.8942   -0.4349 C   0  0  0  0  0  0  0  0  0  0  0  0
   -0.7963   -0.4481    0.8353 C   0  0  0  0  0  0  0  0  0  0  0  0
   -2.2437   -0.8612    0.8697 C   0  0  0  0  0  0  0  0  0  0  0  0
   -3.0495   -0.4699   -0.1721 C   0  0  0  0  0  0  0  0  0  0  0  0
   -4.3945   -0.8492   -0.2399 C   0  0  0  0  0  0  0  0  0  0  0  0
   -4.9314   -1.6325    0.7400 C   0  0  0  0  0  0  0  0  0  0  0  0
   -4.1518   -2.0331    1.8431 C   0  0  0  0  0  0  0  0  0  0  0  0
   -2.7898   -1.6302    1.9333 C   0  0  0  0  0  0  0  0  0  0  0  0
   -2.0731   -2.0093    3.0904 C   0  0  0  0  0  0  0  0  0  0  0  0
   -2.6505   -2.7652    4.0722 C   0  0  0  0  0  0  0  0  0  0  0  0
   -3.9817   -3.1885    3.9595 C   0  0  0  0  0  0  0  0  0  0  0  0
   -4.7156   -2.8205    2.8694 C   0  0  0  0  0  0  0  0  0  0  0  0
   -0.6468    1.0095    0.7346 N   0  0  0  0  0  0  0  0  0  0  0  0
   -1.4198    1.8943    1.4104 C   0  0  0  0  0  0  0  0  0  0  0  0
   -1.1909    3.3163    0.9820 C   0  0  0  0  0  0  0  0  0  0  0  0
   -0.1330    4.0671    1.4783 C   0  0  0  0  0  0  0  0  0  0  0  0
    0.0628    5.3663    1.0461 C   0  0  0  0  0  0  0  0  0  0  0  0
   -0.8110    5.9058    0.1176 C   0  0  0  0  0  0  0  0  0  0  0  0
   -0.5232    7.6784   -0.5141 Br  0  0  0  0  0  0  0  0  0  0  0  0
   -1.8874    5.1810   -0.3661 C   0  0  0  0  0  0  0  0  0  0  0  0
   -2.0762    3.8832    0.0732 C   0  0  0  0  0  0  0  0  0  0  0  0
   -2.2317    1.5707    2.2458 O   0  0  0  0  0  0  0  0  0  0  0  0
    0.4232    1.3630   -0.1849 C   0  0  0  0  0  0  0  0  0  0  0  0
   -0.1371    2.0194   -1.4591 C   0  0  0  0  0  0  0  0  0  0  0  0
    0.5195    3.1388   -1.7518 O   0  0  0  0  0  0  0  0  0  0  0  0
   -1.0342    1.5794   -2.1210 O   0  0  0  0  0  0  0  0  0  0  0  0
    1.0432    0.0954   -0.4913 N   0  0  0  0  0  0  0  0  0  0  0  0
    2.3309   -0.1890   -0.1030 C   0  0  0  0  0  0  0  0  0  0  0  0
    3.2620    0.9764   -0.1985 C   0  0  0  0  0  0  0  0  0  0  0  0
    3.3324    1.7426   -1.3579 C   0  0  0  0  0  0  0  0  0  0  0  0
    4.2391    2.7812   -1.4533 C   0  0  0  0  0  0  0  0  0  0  0  0
    5.0736    3.0497   -0.3803 C   0  0  0  0  0  0  0  0  0  0  0  0
    6.3088    4.4910   -0.5007 Br  0  0  0  0  0  0  0  0  0  0  0  0
    5.0320    2.2847    0.7742 C   0  0  0  0  0  0  0  0  0  0  0  0
    4.1303    1.2402    0.8558 C   0  0  0  0  0  0  0  0  0  0  0  0
    2.7094   -1.2872    0.2280 O   0  0  0  0  0  0  0  0  0  0  0  0
    2.5492   -5.5110   -3.0668 H   0  0  0  0  0  0  0  0  0  0  0  0
    3.0403   -3.9179   -4.8834 H   0  0  0  0  0  0  0  0  0  0  0  0
    2.2514   -1.5887   -4.7186 H   0  0  0  0  0  0  0  0  0  0  0  0
    1.0227   -0.8281   -2.7640 H   0  0  0  0  0  0  0  0  0  0  0  0
    1.5547   -6.0134   -0.9175 H   0  0  0  0  0  0  0  0  0  0  0  0
    0.2848   -5.2858    1.0711 H   0  0  0  0  0  0  0  0  0  0  0  0
   -0.4297   -2.9739    1.3008 H   0  0  0  0  0  0  0  0  0  0  0  0
   -0.6898   -0.6756   -1.2966 H   0  0  0  0  0  0  0  0  0  0  0  0
   -0.2479   -0.7841    1.7203 H   0  0  0  0  0  0  0  0  0  0  0  0
   -2.6514    0.1544   -0.9592 H   0  0  0  0  0  0  0  0  0  0  0  0
   -4.9942   -0.5217   -1.0760 H   0  0  0  0  0  0  0  0  0  0  0  0
   -5.9644   -1.9457    0.6940 H   0  0  0  0  0  0  0  0  0  0  0  0
   -1.0545   -1.6825    3.2327 H   0  0  0  0  0  0  0  0  0  0  0  0
   -2.0803   -3.0363    4.9486 H   0  0  0  0  0  0  0  0  0  0  0  0
   -4.4197   -3.7901    4.7421 H   0  0  0  0  0  0  0  0  0  0  0  0
   -5.7493   -3.1211    2.7756 H   0  0  0  0  0  0  0  0  0  0  0  0
    0.5369    3.6402    2.2101 H   0  0  0  0  0  0  0  0  0  0  0  0
    0.8857    5.9530    1.4238 H   0  0  0  0  0  0  0  0  0  0  0  0
   -2.5679    5.6248   -1.0762 H   0  0  0  0  0  0  0  0  0  0  0  0
   -2.9112    3.3039   -0.2911 H   0  0  0  0  0  0  0  0  0  0  0  0
    1.1422    2.0606    0.2623 H   0  0  0  0  0  0  0  0  0  0  0  0
    0.1729    3.5522   -2.5613 H   0  0  0  0  0  0  0  0  0  0  0  0
    2.6925    1.5112   -2.1947 H   0  0  0  0  0  0  0  0  0  0  0  0
    4.3014    3.3758   -2.3513 H   0  0  0  0  0  0  0  0  0  0  0  0
    5.7011    2.4991    1.5931 H   0  0  0  0  0  0  0  0  0  0  0  0
    4.0924    0.6205    1.7387 H   0  0  0  0  0  0  0  0  0  0  0  0
  1  2  2  0  0  0  0
  2  3  4  0  0  0  0
  3  4  2  0  0  0  0
  4  5  4  0  0  0  0
  1  6  4  0  0  0  0
  5  6  4  0  0  0  0
  6  7  4  0  0  0  0
  7  8  2  0  0  0  0
  8  9  4  0  0  0  0
  5 10  4  0  0  0  0
  9 10  2  0  0  0  0
 10 11  1  0  0  0  0
 11 12  1  0  0  0  0
 12 13  1  0  0  0  0
 13 14  2  0  0  0  0
 14 15  4  0  0  0  0
 15 16  2  0  0  0  0
 16 17  4  0  0  0  0
 13 18  4  0  0  0  0
 17 18  4  0  0  0  0
 18 19  4  0  0  0  0
 19 20  2  0  0  0  0
 20 21  4  0  0  0  0
 17 22  4  0  0  0  0
 21 22  2  0  0  0  0
 12 23  1  0  0  0  0
 23 24  4  0  0  0  0
 24 25  1  0  0  0  0
 25 26  4  0  0  0  0
 26 27  4  0  0  0  0
 27 28  4  0  0  0  0
 28 29  1  0  0  0  0
 28 30  4  0  0  0  0
 25 31  4  0  0  0  0
 30 31  4  0  0  0  0
 24 32  2  0  0  0  0
 23 33  1  0  0  0  0
 33 34  1  0  0  0  0
 34 35  1  0  0  0  0
 34 36  2  0  0  0  0
 11 37  1  0  0  0  0
 33 37  1  0  0  0  0
 37 38  1  0  0  0  0
 38 39  1  0  0  0  0
 39 40  4  0  0  0  0
 40 41  4  0  0  0  0
 41 42  4  0  0  0  0
 42 43  1  0  0  0  0
 42 44  4  0  0  0  0
 39 45  4  0  0  0  0
 44 45  4  0  0  0  0
 38 46  2  0  0  0  0
  1 47  1  0  0  0  0
  2 48  1  0  0  0  0
  3 49  1  0  0  0  0
  4 50  1  0  0  0  0
  7 51  1  0  0  0  0
  8 52  1  0  0  0  0
  9 53  1  0  0  0  0
 11 54  1  0  0  0  0
 12 55  1  0  0  0  0
 14 56  1  0  0  0  0
 15 57  1  0  0  0  0
 16 58  1  0  0  0  0
 19 59  1  0  0  0  0
 20 60  1  0  0  0  0
 21 61  1  0  0  0  0
 22 62  1  0  0  0  0
 26 63  1  0  0  0  0
 27 64  1  0  0  0  0
 30 65  1  0  0  0  0
 31 66  1  0  0  0  0
 33 67  1  0  0  0  0
 35 68  1  0  0  0  0
 40 69  1  0  0  0  0
 41 70  1  0  0  0  0
 44 71  1  0  0  0  0
 45 72  1  0  0  0  0
M  END
