68

C     -1.478697    0.477903   -3.419216
O     -2.661931   -0.084088   -3.013278
C     -3.756836    0.812651   -3.204794
C     -1.284986    0.786327   -4.770796
C     -0.058759    1.284386   -5.206133
C      0.972710    1.470748   -4.294195
C      0.779427    1.158173   -2.946031
C     -0.446635    0.647490   -2.480789
C     -0.647426    0.267305   -1.015480
C      0.391799   -0.775142   -0.518438
C     -0.271915   -2.039734    0.014885
C     -0.187985   -3.209102   -0.767648
C     -0.741427   -4.409552   -0.327133
C     -1.391455   -4.463358    0.901251
C     -1.505273   -3.312971    1.680175
C     -0.943013   -2.104715    1.251345
O     -1.088743   -0.948470    1.970052
C     -0.958297   -1.107980    3.381095
N      1.209871   -0.056438    0.472732
C      2.160182   -0.574708    1.324830
C      2.758070   -1.892542    1.015462
C      3.370183   -2.130121   -0.221853
C      3.917648   -3.384925   -0.495318
C      3.856333   -4.393764    0.468308
C      3.278001   -4.130973    1.704649
F      3.246177   -5.096422    2.634834
C      2.734324   -2.887524    1.993193
O      2.536092    0.011312    2.336082
C      0.711786    1.289544    0.700495
C      1.755843    2.377631    0.295740
O      2.941499    1.902124   -0.159538
O      1.585347    3.590945    0.306962
N     -0.490954    1.415287   -0.115136
C     -1.572521    2.240785    0.131760
C     -1.495061    3.221778    1.224903
C     -1.803818    2.823897    2.525046
C     -1.760734    3.769735    3.539371
F     -2.069077    3.406835    4.791703
C     -1.424564    5.093914    3.273375
C     -1.143733    5.490622    1.965961
C     -1.185639    4.554420    0.933091
O     -2.636248    2.189082   -0.485388
H     -3.486471    1.846552   -2.953747
H     -4.115476    0.757985   -4.239234
H     -4.571243    0.502755   -2.541839
H     -2.074036    0.612066   -5.493984
H      0.092067    1.518977   -6.256506
H      1.938965    1.843743   -4.634235
H      1.615105    1.299859   -2.268814
H     -1.662256   -0.123662   -0.875209
H      1.069716   -1.062491   -1.328142
H      0.309535   -3.197671   -1.735834
H     -0.661573   -5.300682   -0.943659
H     -1.832037   -5.396106    1.242340
H     -2.068685   -3.377026    2.606377
H     -0.144599   -1.789390    3.650448
H     -1.906137   -1.437579    3.820809
H     -0.726990   -0.128005    3.804631
H      3.435758   -1.335852   -0.964122
H      4.397206   -3.570410   -1.453519
H      4.276333   -5.376735    0.271272
H      2.300370   -2.700000    2.968202
H      0.490599    1.419133    1.763685
H      3.454865    2.719994   -0.336689
H     -2.089547    1.802282    2.748744
H     -1.401030    5.813062    4.086661
H     -0.876810    6.523993    1.754800
H     -0.963195    4.854841   -0.088574
