
  xtb     03172201023D
 xtb: 6.3.3 (4ae9cef)
 68 72  0     0  0            999 V2000
   -1.5707    0.6460   -3.2486 C   0  0  0  0  0  0  0  0  0  0  0  0
   -2.6596   -0.0004   -2.7635 O   0  0  0  0  0  0  0  0  0  0  0  0
   -3.8674    0.0773   -3.4819 C   0  0  0  0  0  0  0  0  0  0  0  0
   -1.4842    1.1805   -4.5307 C   0  0  0  0  0  0  0  0  0  0  0  0
   -0.3149    1.7798   -4.9644 C   0  0  0  0  0  0  0  0  0  0  0  0
    0.7872    1.8503   -4.1338 C   0  0  0  0  0  0  0  0  0  0  0  0
    0.7022    1.3349   -2.8522 C   0  0  0  0  0  0  0  0  0  0  0  0
   -0.4623    0.7436   -2.3926 C   0  0  0  0  0  0  0  0  0  0  0  0
   -0.5794    0.2582   -0.9685 C   0  0  0  0  0  0  0  0  0  0  0  0
    0.5440   -0.7185   -0.5510 C   0  0  0  0  0  0  0  0  0  0  0  0
   -0.0135   -2.0281   -0.0514 C   0  0  0  0  0  0  0  0  0  0  0  0
    0.0780   -3.1545   -0.8521 C   0  0  0  0  0  0  0  0  0  0  0  0
   -0.4250   -4.3749   -0.4378 C   0  0  0  0  0  0  0  0  0  0  0  0
   -1.0364   -4.4702    0.7971 C   0  0  0  0  0  0  0  0  0  0  0  0
   -1.1472   -3.3566    1.6108 C   0  0  0  0  0  0  0  0  0  0  0  0
   -0.6414   -2.1281    1.2008 C   0  0  0  0  0  0  0  0  0  0  0  0
   -0.6959   -0.9953    1.9552 O   0  0  0  0  0  0  0  0  0  0  0  0
   -1.1319   -1.0970    3.2915 C   0  0  0  0  0  0  0  0  0  0  0  0
    1.3001    0.0086    0.4579 N   0  0  0  0  0  0  0  0  0  0  0  0
    2.1124   -0.5328    1.4030 C   0  0  0  0  0  0  0  0  0  0  0  0
    2.5619   -1.9306    1.1235 C   0  0  0  0  0  0  0  0  0  0  0  0
    3.2437   -2.2445   -0.0463 C   0  0  0  0  0  0  0  0  0  0  0  0
    3.6587   -3.5430   -0.2826 C   0  0  0  0  0  0  0  0  0  0  0  0
    3.3913   -4.5434    0.6359 C   0  0  0  0  0  0  0  0  0  0  0  0
    2.7358   -4.2071    1.8061 C   0  0  0  0  0  0  0  0  0  0  0  0
    2.4790   -5.1719    2.7123 F   0  0  0  0  0  0  0  0  0  0  0  0
    2.3340   -2.9139    2.0763 C   0  0  0  0  0  0  0  0  0  0  0  0
    2.4648    0.0921    2.3824 O   0  0  0  0  0  0  0  0  0  0  0  0
    0.7935    1.3422    0.6552 C   0  0  0  0  0  0  0  0  0  0  0  0
    1.7506    2.4184    0.1046 C   0  0  0  0  0  0  0  0  0  0  0  0
    2.9846    1.9544   -0.0689 O   0  0  0  0  0  0  0  0  0  0  0  0
    1.4263    3.5511   -0.1161 O   0  0  0  0  0  0  0  0  0  0  0  0
   -0.4763    1.3547   -0.0120 N   0  0  0  0  0  0  0  0  0  0  0  0
   -1.4472    2.2990    0.0683 C   0  0  0  0  0  0  0  0  0  0  0  0
   -1.2989    3.2884    1.1808 C   0  0  0  0  0  0  0  0  0  0  0  0
   -1.3763    2.8477    2.4959 C   0  0  0  0  0  0  0  0  0  0  0  0
   -1.3130    3.7795    3.5137 C   0  0  0  0  0  0  0  0  0  0  0  0
   -1.3913    3.3491    4.7924 F   0  0  0  0  0  0  0  0  0  0  0  0
   -1.1726    5.1320    3.2634 C   0  0  0  0  0  0  0  0  0  0  0  0
   -1.1118    5.5570    1.9471 C   0  0  0  0  0  0  0  0  0  0  0  0
   -1.1855    4.6448    0.9086 C   0  0  0  0  0  0  0  0  0  0  0  0
   -2.4017    2.3051   -0.6806 O   0  0  0  0  0  0  0  0  0  0  0  0
   -4.1598    1.1168   -3.6529 H   0  0  0  0  0  0  0  0  0  0  0  0
   -3.8037   -0.4531   -4.4383 H   0  0  0  0  0  0  0  0  0  0  0  0
   -4.6126   -0.4068   -2.8529 H   0  0  0  0  0  0  0  0  0  0  0  0
   -2.3284    1.1350   -5.2000 H   0  0  0  0  0  0  0  0  0  0  0  0
   -0.2691    2.1904   -5.9621 H   0  0  0  0  0  0  0  0  0  0  0  0
    1.7017    2.3104   -4.4750 H   0  0  0  0  0  0  0  0  0  0  0  0
    1.5582    1.3956   -2.1971 H   0  0  0  0  0  0  0  0  0  0  0  0
   -1.5663   -0.1989   -0.8489 H   0  0  0  0  0  0  0  0  0  0  0  0
    1.1822   -0.9249   -1.4189 H   0  0  0  0  0  0  0  0  0  0  0  0
    0.5598   -3.0710   -1.8151 H   0  0  0  0  0  0  0  0  0  0  0  0
   -0.3369   -5.2416   -1.0736 H   0  0  0  0  0  0  0  0  0  0  0  0
   -1.4323   -5.4145    1.1383 H   0  0  0  0  0  0  0  0  0  0  0  0
   -1.6357   -3.4552    2.5668 H   0  0  0  0  0  0  0  0  0  0  0  0
   -0.5917   -1.8789    3.8325 H   0  0  0  0  0  0  0  0  0  0  0  0
   -2.2080   -1.2883    3.3499 H   0  0  0  0  0  0  0  0  0  0  0  0
   -0.9084   -0.1372    3.7552 H   0  0  0  0  0  0  0  0  0  0  0  0
    3.4621   -1.4666   -0.7619 H   0  0  0  0  0  0  0  0  0  0  0  0
    4.1907   -3.7821   -1.1909 H   0  0  0  0  0  0  0  0  0  0  0  0
    3.6910   -5.5647    0.4633 H   0  0  0  0  0  0  0  0  0  0  0  0
    1.8457   -2.6772    3.0079 H   0  0  0  0  0  0  0  0  0  0  0  0
    0.7113    1.5489    1.7353 H   0  0  0  0  0  0  0  0  0  0  0  0
    3.5873    2.6683   -0.3361 H   0  0  0  0  0  0  0  0  0  0  0  0
   -1.5077    1.8019    2.7253 H   0  0  0  0  0  0  0  0  0  0  0  0
   -1.1209    5.8270    4.0865 H   0  0  0  0  0  0  0  0  0  0  0  0
   -1.0104    6.6096    1.7321 H   0  0  0  0  0  0  0  0  0  0  0  0
   -1.1415    4.9736   -0.1169 H   0  0  0  0  0  0  0  0  0  0  0  0
  1  2  1  0  0  0  0
  2  3  1  0  0  0  0
  1  4  4  0  0  0  0
  4  5  4  0  0  0  0
  5  6  4  0  0  0  0
  6  7  4  0  0  0  0
  1  8  4  0  0  0  0
  7  8  4  0  0  0  0
  8  9  1  0  0  0  0
  9 10  1  0  0  0  0
 10 11  1  0  0  0  0
 11 12  4  0  0  0  0
 12 13  4  0  0  0  0
 13 14  4  0  0  0  0
 14 15  4  0  0  0  0
 11 16  4  0  0  0  0
 15 16  4  0  0  0  0
 16 17  1  0  0  0  0
 17 18  1  0  0  0  0
 10 19  1  0  0  0  0
 19 20  4  0  0  0  0
 20 21  1  0  0  0  0
 21 22  4  0  0  0  0
 22 23  4  0  0  0  0
 23 24  4  0  0  0  0
 24 25  4  0  0  0  0
 25 26  1  0  0  0  0
 21 27  4  0  0  0  0
 25 27  4  0  0  0  0
 20 28  2  0  0  0  0
 19 29  1  0  0  0  0
 29 30  1  0  0  0  0
 30 31  1  0  0  0  0
 30 32  2  0  0  0  0
  9 33  1  0  0  0  0
 29 33  1  0  0  0  0
 33 34  4  0  0  0  0
 34 35  1  0  0  0  0
 35 36  4  0  0  0  0
 36 37  4  0  0  0  0
 37 38  1  0  0  0  0
 37 39  4  0  0  0  0
 39 40  4  0  0  0  0
 35 41  4  0  0  0  0
 40 41  4  0  0  0  0
 34 42  2  0  0  0  0
  3 43  1  0  0  0  0
  3 44  1  0  0  0  0
  3 45  1  0  0  0  0
  4 46  1  0  0  0  0
  5 47  1  0  0  0  0
  6 48  1  0  0  0  0
  7 49  1  0  0  0  0
  9 50  1  0  0  0  0
 10 51  1  0  0  0  0
 12 52  1  0  0  0  0
 13 53  1  0  0  0  0
 14 54  1  0  0  0  0
 15 55  1  0  0  0  0
 18 56  1  0  0  0  0
 18 57  1  0  0  0  0
 18 58  1  0  0  0  0
 22 59  1  0  0  0  0
 23 60  1  0  0  0  0
 24 61  1  0  0  0  0
 27 62  1  0  0  0  0
 29 63  1  0  0  0  0
 31 64  1  0  0  0  0
 36 65  1  0  0  0  0
 39 66  1  0  0  0  0
 40 67  1  0  0  0  0
 41 68  1  0  0  0  0
M  END
