66

C     -0.894509   -2.323023    2.777047
O     -1.725083   -2.959773    1.886603
C     -2.313106   -4.174605    2.347087
C     -1.017653   -2.455169    4.166419
C     -0.114363   -1.819384    5.010840
C      0.908881   -1.043880    4.475476
C      1.023547   -0.888196    3.092419
C      0.105943   -1.492698    2.218070
C      0.208830   -1.369948    0.697437
C     -1.052652   -0.741005    0.036191
C     -1.417365   -1.373938   -1.325503
C     -0.469817   -2.042017   -2.131135
C     -0.818600   -2.605837   -3.364017
C     -2.119102   -2.489930   -3.841468
C     -3.072828   -1.824197   -3.078283
C     -2.729205   -1.293553   -1.827633
O     -3.679416   -0.616079   -1.113217
C     -4.725826   -1.471035   -0.663982
N     -0.659742    0.661420   -0.166589
C     -1.585940    1.694935   -0.141879
C     -1.182952    2.965339   -0.713843
C     -0.574062    3.308142   -1.914653
C     -0.426473    4.718954   -1.913927
C     -0.978995    5.144434   -0.727315
N     -1.139473    6.449752   -0.167190
O     -1.645102    6.545268    0.956998
O     -0.744165    7.390990   -0.869276
O     -1.456395    4.102309    0.002406
O     -2.696370    1.546845    0.366041
C      0.783575    0.798438   -0.233848
C      1.355820    1.917547    0.696341
O      2.108641    2.840133    0.042518
O      1.174313    2.005404    1.901088
N      1.296490   -0.501205    0.201050
C      2.569891   -1.001164    0.003251
C      3.529194   -0.124425   -0.630381
C      3.700442    0.249582   -1.953176
C      4.849331    1.084733   -1.996972
C      5.301144    1.159561   -0.699089
N      6.414618    1.845553   -0.118927
O      7.090554    2.535997   -0.895640
O      6.614931    1.703251    1.091544
O      4.499810    0.451800    0.145266
O      2.863829   -2.153388    0.312069
H     -2.624386   -4.755778    1.470142
H     -1.600142   -4.790130    2.907218
H     -3.203908   -3.959189    2.940118
H     -1.801251   -3.058492    4.624181
H     -0.201532   -1.933486    6.088248
H      1.621097   -0.559654    5.137107
H      1.855136   -0.296647    2.727042
H      0.396342   -2.395341    0.351246
H     -1.927541   -0.787840    0.691778
H      0.563092   -2.166918   -1.814383
H     -0.072182   -3.134732   -3.953603
H     -2.383014   -2.918009   -4.805261
H     -4.084045   -1.705967   -3.461427
H     -5.201289   -1.000499    0.198422
H     -5.479976   -1.587103   -1.449832
H     -4.363668   -2.459145   -0.348092
H     -0.319682    2.618766   -2.706008
H     -0.002403    5.352507   -2.683209
H      1.065796    0.971533   -1.277956
H      2.210877    2.725365   -0.918791
H      3.087766   -0.067012   -2.794005
H      5.304321    1.551834   -2.861151
