
  xtb     03172200143D
 xtb: 6.3.3 (4ae9cef)
 66 72  0     0  0            999 V2000
   -0.6210   -2.7785    2.1376 C   0  0  0  0  0  0  0  0  0  0  0  0
   -0.9468   -3.6112    1.1079 O   0  0  0  0  0  0  0  0  0  0  0  0
   -1.4225   -4.8996    1.4115 C   0  0  0  0  0  0  0  0  0  0  0  0
   -0.7627   -3.0958    3.4826 C   0  0  0  0  0  0  0  0  0  0  0  0
   -0.4177   -2.1733    4.4564 C   0  0  0  0  0  0  0  0  0  0  0  0
    0.0613   -0.9259    4.1059 C   0  0  0  0  0  0  0  0  0  0  0  0
    0.2036   -0.6014    2.7676 C   0  0  0  0  0  0  0  0  0  0  0  0
   -0.1204   -1.5181    1.7828 C   0  0  0  0  0  0  0  0  0  0  0  0
    0.0130   -1.1838    0.3200 C   0  0  0  0  0  0  0  0  0  0  0  0
   -1.1603   -0.3282   -0.1894 C   0  0  0  0  0  0  0  0  0  0  0  0
   -1.9667   -1.0413   -1.2428 C   0  0  0  0  0  0  0  0  0  0  0  0
   -1.5988   -1.0318   -2.5756 C   0  0  0  0  0  0  0  0  0  0  0  0
   -2.3422   -1.7138   -3.5240 C   0  0  0  0  0  0  0  0  0  0  0  0
   -3.4644   -2.4156   -3.1276 C   0  0  0  0  0  0  0  0  0  0  0  0
   -3.8455   -2.4427   -1.7969 C   0  0  0  0  0  0  0  0  0  0  0  0
   -3.1017   -1.7614   -0.8399 C   0  0  0  0  0  0  0  0  0  0  0  0
   -3.3832   -1.7378    0.4868 O   0  0  0  0  0  0  0  0  0  0  0  0
   -4.5438   -2.3883    0.9460 C   0  0  0  0  0  0  0  0  0  0  0  0
   -0.5391    0.8886   -0.6993 N   0  0  0  0  0  0  0  0  0  0  0  0
   -1.3210    1.9799   -0.8965 C   0  0  0  0  0  0  0  0  0  0  0  0
   -0.6037    3.1960   -1.3973 C   0  0  0  0  0  0  0  0  0  0  0  0
    0.1521    3.3885   -2.5347 C   0  0  0  0  0  0  0  0  0  0  0  0
    0.4536    4.7602   -2.5812 C   0  0  0  0  0  0  0  0  0  0  0  0
   -0.1476    5.2972   -1.4676 C   0  0  0  0  0  0  0  0  0  0  0  0
   -0.1671    6.6459   -1.0121 N   0  0  0  0  0  0  0  0  0  0  0  0
   -0.7792    6.8960   -0.0034 O   0  0  0  0  0  0  0  0  0  0  0  0
    0.4427    7.4416   -1.6967 O   0  0  0  0  0  0  0  0  0  0  0  0
   -0.7897    4.3548   -0.7652 O   0  0  0  0  0  0  0  0  0  0  0  0
   -2.5175    1.9676   -0.7440 O   0  0  0  0  0  0  0  0  0  0  0  0
    0.9003    0.8546   -0.6591 C   0  0  0  0  0  0  0  0  0  0  0  0
    1.4567    2.0728    0.1366 C   0  0  0  0  0  0  0  0  0  0  0  0
    2.3669    2.8252   -0.4949 O   0  0  0  0  0  0  0  0  0  0  0  0
    1.0989    2.3129    1.2453 O   0  0  0  0  0  0  0  0  0  0  0  0
    1.1966   -0.3802    0.0282 N   0  0  0  0  0  0  0  0  0  0  0  0
    2.4227   -0.8354    0.3708 C   0  0  0  0  0  0  0  0  0  0  0  0
    3.5576    0.0940    0.0340 C   0  0  0  0  0  0  0  0  0  0  0  0
    4.1815    0.3458   -1.1675 C   0  0  0  0  0  0  0  0  0  0  0  0
    5.2552    1.2089   -0.8803 C   0  0  0  0  0  0  0  0  0  0  0  0
    5.2010    1.4119    0.4774 C   0  0  0  0  0  0  0  0  0  0  0  0
    6.0428    2.2004    1.3106 N   0  0  0  0  0  0  0  0  0  0  0  0
    6.9264    2.8081    0.7418 O   0  0  0  0  0  0  0  0  0  0  0  0
    5.8247    2.2037    2.4970 O   0  0  0  0  0  0  0  0  0  0  0  0
    4.1810    0.7335    1.0249 O   0  0  0  0  0  0  0  0  0  0  0  0
    2.6210   -1.9106    0.8801 O   0  0  0  0  0  0  0  0  0  0  0  0
   -1.6098   -5.3758    0.4500 H   0  0  0  0  0  0  0  0  0  0  0  0
   -0.6806   -5.4827    1.9651 H   0  0  0  0  0  0  0  0  0  0  0  0
   -2.3550   -4.8594    1.9834 H   0  0  0  0  0  0  0  0  0  0  0  0
   -1.1370   -4.0610    3.7846 H   0  0  0  0  0  0  0  0  0  0  0  0
   -0.5292   -2.4394    5.4969 H   0  0  0  0  0  0  0  0  0  0  0  0
    0.3254   -0.2068    4.8648 H   0  0  0  0  0  0  0  0  0  0  0  0
    0.5733    0.3748    2.4919 H   0  0  0  0  0  0  0  0  0  0  0  0
    0.0802   -2.1225   -0.2422 H   0  0  0  0  0  0  0  0  0  0  0  0
   -1.8312   -0.0598    0.6341 H   0  0  0  0  0  0  0  0  0  0  0  0
   -0.7223   -0.4774   -2.8788 H   0  0  0  0  0  0  0  0  0  0  0  0
   -2.0469   -1.6957   -4.5615 H   0  0  0  0  0  0  0  0  0  0  0  0
   -4.0543   -2.9500   -3.8569 H   0  0  0  0  0  0  0  0  0  0  0  0
   -4.7266   -2.9969   -1.5157 H   0  0  0  0  0  0  0  0  0  0  0  0
   -4.5664   -2.2177    2.0212 H   0  0  0  0  0  0  0  0  0  0  0  0
   -5.4463   -1.9662    0.4938 H   0  0  0  0  0  0  0  0  0  0  0  0
   -4.5054   -3.4646    0.7497 H   0  0  0  0  0  0  0  0  0  0  0  0
    0.4214    2.6473   -3.2600 H   0  0  0  0  0  0  0  0  0  0  0  0
    1.0203    5.2939   -3.3157 H   0  0  0  0  0  0  0  0  0  0  0  0
    1.3280    0.8369   -1.6826 H   0  0  0  0  0  0  0  0  0  0  0  0
    2.5715    2.5478   -1.3992 H   0  0  0  0  0  0  0  0  0  0  0  0
    3.9190   -0.0611   -2.1231 H   0  0  0  0  0  0  0  0  0  0  0  0
    5.9751    1.6231   -1.5555 H   0  0  0  0  0  0  0  0  0  0  0  0
  1  2  1  0  0  0  0
  2  3  1  0  0  0  0
  1  4  4  0  0  0  0
  4  5  4  0  0  0  0
  5  6  4  0  0  0  0
  6  7  4  0  0  0  0
  1  8  4  0  0  0  0
  7  8  4  0  0  0  0
  8  9  1  0  0  0  0
  9 10  1  0  0  0  0
 10 11  1  0  0  0  0
 11 12  4  0  0  0  0
 12 13  4  0  0  0  0
 13 14  4  0  0  0  0
 14 15  4  0  0  0  0
 11 16  4  0  0  0  0
 15 16  4  0  0  0  0
 16 17  1  0  0  0  0
 17 18  1  0  0  0  0
 10 19  1  0  0  0  0
 19 20  4  0  0  0  0
 20 21  1  0  0  0  0
 21 22  4  0  0  0  0
 22 23  4  0  0  0  0
 23 24  4  0  0  0  0
 24 25  1  0  0  0  0
 25 26  4  0  0  0  0
 25 27  4  0  0  0  0
 26 27  1  0  0  0  0
 21 28  1  0  0  0  0
 24 28  1  0  0  0  0
 20 29  2  0  0  0  0
 19 30  1  0  0  0  0
 30 31  1  0  0  0  0
 31 32  1  0  0  0  0
 31 33  2  0  0  0  0
  9 34  1  0  0  0  0
 30 34  1  0  0  0  0
 34 35  4  0  0  0  0
 35 36  1  0  0  0  0
 36 37  2  0  0  0  0
 37 38  4  0  0  0  0
 38 39  4  0  0  0  0
 39 40  1  0  0  0  0
 40 41  4  0  0  0  0
 40 42  4  0  0  0  0
 41 42  1  0  0  0  0
 36 43  1  0  0  0  0
 39 43  1  0  0  0  0
 35 44  2  0  0  0  0
  3 45  1  0  0  0  0
  3 46  1  0  0  0  0
  3 47  1  0  0  0  0
  4 48  1  0  0  0  0
  5 49  1  0  0  0  0
  6 50  1  0  0  0  0
  7 51  1  0  0  0  0
  9 52  1  0  0  0  0
 10 53  1  0  0  0  0
 12 54  1  0  0  0  0
 13 55  1  0  0  0  0
 14 56  1  0  0  0  0
 15 57  1  0  0  0  0
 18 58  1  0  0  0  0
 18 59  1  0  0  0  0
 18 60  1  0  0  0  0
 22 61  1  0  0  0  0
 23 62  1  0  0  0  0
 30 63  1  0  0  0  0
 32 64  1  0  0  0  0
 37 65  1  0  0  0  0
 38 66  1  0  0  0  0
M  END
