84

C      4.624496    3.260699   -1.194500
C      4.800258    2.257411   -2.141133
C      3.862942    1.239886   -2.236172
C      2.749180    1.223968   -1.389208
C      2.538934    2.228151   -0.413485
C      3.513385    3.258478   -0.335718
C      3.384816    4.291777    0.599169
C      2.306197    4.338443    1.473697
C      1.340404    3.349284    1.405198
C      1.429334    2.280482    0.482336
C      0.294761    1.274974    0.541670
C     -0.630560    1.194589   -0.701724
C     -1.629585    2.356423   -0.755251
C     -2.612459    2.456876    0.255733
C     -3.554961    3.477046    0.251695
C     -3.538429    4.422843   -0.770928
C     -2.581763    4.369260   -1.793819
C     -1.601558    3.340504   -1.796271
C     -0.654204    3.368725   -2.848576
C     -0.689373    4.335624   -3.855816
C     -1.657372    5.324020   -3.832169
C     -2.593568    5.342263   -2.806209
N     -1.244905   -0.122357   -0.499293
C     -2.266542   -0.594382   -1.300643
C     -3.100467   -1.672384   -0.730866
C     -3.019914   -2.970986   -1.228222
C     -3.839567   -3.959400   -0.662065
C     -3.800095   -5.370188   -1.159169
C     -4.757464   -3.611243    0.341645
C     -4.867647   -2.296244    0.804586
C     -5.926146   -1.913613    1.785566
C     -4.029421   -1.323412    0.255387
O     -2.582207   -0.081438   -2.376480
C     -0.378717   -0.977240    0.313939
C      0.228198   -2.105279   -0.551981
O      0.177408   -3.308051    0.056946
O      0.724419   -2.030419   -1.674563
N      0.700686   -0.107952    0.787657
C      1.214347   -0.416513    2.053763
C      2.189355   -1.544699    2.106253
C      2.273796   -2.320451    3.264284
C      3.189282   -3.377242    3.342948
C      3.267131   -4.221731    4.584716
C      4.027913   -3.642827    2.250749
C      3.984638   -2.846186    1.099332
C      4.886848   -3.131994   -0.063721
C      3.066275   -1.795824    1.038940
O      0.909391    0.189716    3.072446
H      5.380191    4.041180   -1.119003
H      5.673036    2.261451   -2.793821
H      3.990940    0.455605   -2.981110
H      2.057692    0.392333   -1.504786
H      4.133657    5.078037    0.658885
H      2.223436    5.136505    2.203625
H      0.499224    3.407246    2.097651
H     -0.335848    1.528128    1.411937
H     -0.062313    1.100486   -1.633353
H     -2.654270    1.735436    1.064680
H     -4.304378    3.539065    1.036900
H     -4.285382    5.218108   -0.747641
H      0.135835    2.628777   -2.925706
H      0.033281    4.304627   -4.660709
H     -1.692096    6.072026   -4.612788
H     -3.350422    6.123509   -2.803839
H     -2.337421   -3.209365   -2.037792
H     -4.677983   -5.569736   -1.782164
H     -3.791137   -6.071438   -0.323121
H     -2.907025   -5.559959   -1.762685
H     -5.424340   -4.375638    0.736232
H     -6.018471   -2.652241    2.583721
H     -6.888204   -1.838516    1.272980
H     -5.699185   -0.958960    2.261154
H     -4.123394   -0.280286    0.559053
H     -0.959164   -1.384108    1.143984
H      0.627536   -3.905199   -0.575383
H      1.612285   -2.106341    4.109652
H      4.155723   -4.859516    4.577625
H      3.319468   -3.589399    5.477632
H      2.379214   -4.866414    4.660165
H      4.742166   -4.466099    2.306940
H      5.109130   -2.219372   -0.631664
H      4.413920   -3.842157   -0.745389
H      5.844519   -3.543273    0.270795
H      3.052313   -1.163889    0.156676
