
  xtb     03172202203D
 xtb: 6.3.3 (4ae9cef)
 34 36  0     0  0            999 V2000
    2.8942   -0.8139    2.0556 O   0  0  0  0  0  0  0  0  0  0  0  0
    3.3745   -0.4236    1.0164 C   0  0  0  0  0  0  0  0  0  0  0  0
    4.7020   -0.3179    0.8272 O   0  0  0  0  0  0  0  0  0  0  0  0
    5.5104   -0.7014    1.9269 C   0  0  0  0  0  0  0  0  0  0  0  0
    2.5885   -0.0133   -0.1638 C   0  0  0  0  0  0  0  0  0  0  0  0
    1.2046   -0.1089   -0.0684 C   0  0  0  0  0  0  0  0  0  0  0  0
    0.4447    0.2798   -1.1572 C   0  0  0  0  0  0  0  0  0  0  0  0
    1.0671    0.7037   -2.3623 C   0  0  0  0  0  0  0  0  0  0  0  0
    2.4575    0.7939   -2.4360 C   0  0  0  0  0  0  0  0  0  0  0  0
    3.2065    0.4485   -1.3372 C   0  0  0  0  0  0  0  0  0  0  0  0
    0.0243    0.9395   -3.3002 C   0  0  0  0  0  0  0  0  0  0  0  0
   -1.1462    0.6612   -2.6707 C   0  0  0  0  0  0  0  0  0  0  0  0
   -0.9177    0.2814   -1.3700 N   0  0  0  0  0  0  0  0  0  0  0  0
   -1.9447   -0.0280   -0.4818 C   0  0  0  0  0  0  0  0  0  0  0  0
   -3.0512   -0.5061   -1.0395 N   0  0  0  0  0  0  0  0  0  0  0  0
   -4.0702   -0.8201   -0.2637 C   0  0  0  0  0  0  0  0  0  0  0  0
   -4.0647   -0.6864    1.1198 C   0  0  0  0  0  0  0  0  0  0  0  0
   -5.2489   -1.0622    1.9516 C   0  0  0  0  0  0  0  0  0  0  0  0
   -2.9123   -0.1512    1.6903 C   0  0  0  0  0  0  0  0  0  0  0  0
   -1.8388    0.1931    0.8921 C   0  0  0  0  0  0  0  0  0  0  0  0
    5.3402   -1.7513    2.1754 H   0  0  0  0  0  0  0  0  0  0  0  0
    6.5407   -0.5440    1.6180 H   0  0  0  0  0  0  0  0  0  0  0  0
    5.2747   -0.0932    2.8031 H   0  0  0  0  0  0  0  0  0  0  0  0
    0.7802   -0.5062    0.8397 H   0  0  0  0  0  0  0  0  0  0  0  0
    2.9303    1.1235   -3.3488 H   0  0  0  0  0  0  0  0  0  0  0  0
    4.2825    0.5126   -1.3648 H   0  0  0  0  0  0  0  0  0  0  0  0
    0.1436    1.2730   -4.3116 H   0  0  0  0  0  0  0  0  0  0  0  0
   -2.1551    0.7090   -3.0302 H   0  0  0  0  0  0  0  0  0  0  0  0
   -4.9403   -1.2041   -0.7814 H   0  0  0  0  0  0  0  0  0  0  0  0
   -4.9320   -1.5198    2.8864 H   0  0  0  0  0  0  0  0  0  0  0  0
   -5.8925   -1.7557    1.4163 H   0  0  0  0  0  0  0  0  0  0  0  0
   -5.8324   -0.1734    2.1943 H   0  0  0  0  0  0  0  0  0  0  0  0
   -2.8605    0.0036    2.7586 H   0  0  0  0  0  0  0  0  0  0  0  0
   -0.9592    0.6472    1.3161 H   0  0  0  0  0  0  0  0  0  0  0  0
  1  2  2  0  0  0  0
  2  3  1  0  0  0  0
  3  4  1  0  0  0  0
  2  5  1  0  0  0  0
  5  6  4  0  0  0  0
  6  7  4  0  0  0  0
  7  8  4  0  0  0  0
  8  9  4  0  0  0  0
  5 10  4  0  0  0  0
  9 10  2  0  0  0  0
  8 11  4  0  0  0  0
 11 12  2  0  0  0  0
  7 13  1  0  0  0  0
 12 13  1  0  0  0  0
 13 14  1  0  0  0  0
 14 15  4  0  0  0  0
 15 16  4  0  0  0  0
 16 17  4  0  0  0  0
 17 18  1  0  0  0  0
 17 19  4  0  0  0  0
 14 20  4  0  0  0  0
 19 20  4  0  0  0  0
  4 21  1  0  0  0  0
  4 22  1  0  0  0  0
  4 23  1  0  0  0  0
  6 24  1  0  0  0  0
  9 25  1  0  0  0  0
 10 26  1  0  0  0  0
 11 27  1  0  0  0  0
 12 28  1  0  0  0  0
 16 29  1  0  0  0  0
 18 30  1  0  0  0  0
 18 31  1  0  0  0  0
 18 32  1  0  0  0  0
 19 33  1  0  0  0  0
 20 34  1  0  0  0  0
M  END
