78

C     -4.144899   -4.091517    0.810506
C     -4.406575   -3.797380    2.145788
C     -3.733213   -2.753526    2.760754
C     -2.791104   -2.012382    2.040542
C     -2.488413   -2.286309    0.683858
C     -3.205518   -3.350382    0.074185
C     -2.980931   -3.670377   -1.269402
C     -2.070767   -2.945160   -2.027370
C     -1.355450   -1.903617   -1.444499
C     -1.521971   -1.564859   -0.089621
C     -0.678521   -0.457156    0.527706
C      0.719812   -0.060780   -0.043124
C      1.809024   -1.087648    0.265344
C      2.149807   -1.315338    1.615769
C      3.116053   -2.244777    1.975797
C      3.769970   -2.973327    0.991531
C      3.475291   -2.775554   -0.362830
C      2.492484   -1.826799   -0.754192
C      2.279520   -1.679375   -2.148061
C      2.980793   -2.430218   -3.096545
C      3.925891   -3.355231   -2.684625
C      4.170493   -3.523830   -1.326214
N      0.941899    1.259529    0.603256
C      1.945392    2.175340    0.365390
C      3.058183    1.793545   -0.522299
C      2.990280    2.021043   -1.907397
C      1.807459    2.696573   -2.543381
C      4.075496    1.618709   -2.698784
C      5.200216    1.022467   -2.119060
C      5.266398    0.837641   -0.740106
C      4.199054    1.233157    0.064779
O      1.951513    3.297808    0.858593
C     -0.289147    1.748035    1.222648
C     -0.261647    1.780879    2.776617
O      0.927068    1.458542    3.335780
O     -1.205167    2.047283    3.510045
N     -1.333944    0.848389    0.726755
C     -2.118819    1.402308   -0.289836
C     -2.870494    2.644292    0.040180
C     -2.633400    3.758331   -0.780262
C     -3.275058    4.967931   -0.524022
C     -4.162053    5.065350    0.544592
C     -4.423044    3.950548    1.345783
C     -3.789275    2.721616    1.101664
C     -4.180507    1.525862    1.924005
O     -2.192000    0.964285   -1.433527
H     -4.688022   -4.912970    0.343845
H     -5.142990   -4.376811    2.695712
H     -3.937205   -2.508452    3.799130
H     -2.303675   -1.199958    2.569982
H     -3.529025   -4.479075   -1.746234
H     -1.925788   -3.181177   -3.078995
H     -0.687480   -1.338029   -2.084205
H     -0.479512   -0.807085    1.548896
H      0.646997    0.160327   -1.107704
H      1.664772   -0.755465    2.411549
H      3.359332   -2.395069    3.023443
H      4.520845   -3.699226    1.295134
H      1.570390   -0.959205   -2.536985
H      2.788159   -2.285787   -4.155936
H      4.475707   -3.942213   -3.414074
H      4.919384   -4.250856   -1.020503
H      1.663345    3.693510   -2.116650
H      0.893845    2.110456   -2.397750
H      1.952935    2.814533   -3.622515
H      4.052509    1.768850   -3.773613
H      6.030892    0.706110   -2.744914
H      6.142117    0.374202   -0.288332
H      4.248188    1.088019    1.141594
H     -0.450255    2.783879    0.905619
H      0.790799    1.631589    4.290703
H     -1.943985    3.681755   -1.617288
H     -3.085326    5.829759   -1.159330
H     -4.670136    6.006025    0.747386
H     -5.142708    4.046380    2.156415
H     -4.867058    1.808590    2.733100
H     -4.692358    0.787650    1.293763
H     -3.314870    1.065824    2.402044
