
  xtb     03162222013D
 xtb: 6.3.3 (4ae9cef)
 78 84  0     0  0            999 V2000
   -4.4988   -3.7961    0.6700 C   0  0  0  0  0  0  0  0  0  0  0  0
   -4.9322   -3.2642    1.8511 C   0  0  0  0  0  0  0  0  0  0  0  0
   -4.1973   -2.2404    2.4634 C   0  0  0  0  0  0  0  0  0  0  0  0
   -3.0555   -1.7578    1.8845 C   0  0  0  0  0  0  0  0  0  0  0  0
   -2.5885   -2.2716    0.6557 C   0  0  0  0  0  0  0  0  0  0  0  0
   -3.3254   -3.3223    0.0479 C   0  0  0  0  0  0  0  0  0  0  0  0
   -2.8715   -3.8807   -1.1653 C   0  0  0  0  0  0  0  0  0  0  0  0
   -1.7285   -3.4227   -1.7496 C   0  0  0  0  0  0  0  0  0  0  0  0
   -1.0059   -2.3717   -1.1663 C   0  0  0  0  0  0  0  0  0  0  0  0
   -1.4233   -1.7821   -0.0030 C   0  0  0  0  0  0  0  0  0  0  0  0
   -0.6566   -0.6657    0.6507 C   0  0  0  0  0  0  0  0  0  0  0  0
    0.6511   -0.1561   -0.0095 C   0  0  0  0  0  0  0  0  0  0  0  0
    1.8466   -1.0402    0.2265 C   0  0  0  0  0  0  0  0  0  0  0  0
    2.2208   -1.2803    1.5264 C   0  0  0  0  0  0  0  0  0  0  0  0
    3.3194   -2.0869    1.8414 C   0  0  0  0  0  0  0  0  0  0  0  0
    4.0527   -2.6548    0.8409 C   0  0  0  0  0  0  0  0  0  0  0  0
    3.7216   -2.4238   -0.5093 C   0  0  0  0  0  0  0  0  0  0  0  0
    2.6065   -1.6022   -0.8375 C   0  0  0  0  0  0  0  0  0  0  0  0
    2.3468   -1.3788   -2.2080 C   0  0  0  0  0  0  0  0  0  0  0  0
    3.1198   -1.9419   -3.1844 C   0  0  0  0  0  0  0  0  0  0  0  0
    4.2066   -2.7608   -2.8529 C   0  0  0  0  0  0  0  0  0  0  0  0
    4.4996   -2.9910   -1.5401 C   0  0  0  0  0  0  0  0  0  0  0  0
    0.7910    1.1578    0.6272 N   0  0  0  0  0  0  0  0  0  0  0  0
    1.6683    2.1423    0.2966 C   0  0  0  0  0  0  0  0  0  0  0  0
    2.8191    1.6982   -0.5477 C   0  0  0  0  0  0  0  0  0  0  0  0
    2.7868    1.8861   -1.9295 C   0  0  0  0  0  0  0  0  0  0  0  0
    1.5986    2.5315   -2.5776 C   0  0  0  0  0  0  0  0  0  0  0  0
    3.8788    1.4690   -2.6784 C   0  0  0  0  0  0  0  0  0  0  0  0
    4.9804    0.8915   -2.0726 C   0  0  0  0  0  0  0  0  0  0  0  0
    5.0155    0.7392   -0.6980 C   0  0  0  0  0  0  0  0  0  0  0  0
    3.9361    1.1473    0.0639 C   0  0  0  0  0  0  0  0  0  0  0  0
    1.5178    3.2809    0.6906 O   0  0  0  0  0  0  0  0  0  0  0  0
   -0.4301    1.4964    1.3425 C   0  0  0  0  0  0  0  0  0  0  0  0
   -0.2874    1.3223    2.8594 C   0  0  0  0  0  0  0  0  0  0  0  0
    0.9389    1.5896    3.2844 O   0  0  0  0  0  0  0  0  0  0  0  0
   -1.1914    1.0010    3.5823 O   0  0  0  0  0  0  0  0  0  0  0  0
   -1.4049    0.5861    0.8105 N   0  0  0  0  0  0  0  0  0  0  0  0
   -2.4213    0.9799   -0.0216 C   0  0  0  0  0  0  0  0  0  0  0  0
   -2.8307    2.4089    0.1702 C   0  0  0  0  0  0  0  0  0  0  0  0
   -2.3762    3.3624   -0.7320 C   0  0  0  0  0  0  0  0  0  0  0  0
   -2.7529    4.6864   -0.5955 C   0  0  0  0  0  0  0  0  0  0  0  0
   -3.5940    5.0531    0.4406 C   0  0  0  0  0  0  0  0  0  0  0  0
   -4.0607    4.0988    1.3276 C   0  0  0  0  0  0  0  0  0  0  0  0
   -3.6911    2.7653    1.2097 C   0  0  0  0  0  0  0  0  0  0  0  0
   -4.1933    1.7319    2.1679 C   0  0  0  0  0  0  0  0  0  0  0  0
   -2.9583    0.2409   -0.8134 O   0  0  0  0  0  0  0  0  0  0  0  0
   -5.0512   -4.5909    0.1889 H   0  0  0  0  0  0  0  0  0  0  0  0
   -5.8352   -3.6279    2.3194 H   0  0  0  0  0  0  0  0  0  0  0  0
   -4.5385   -1.8287    3.4021 H   0  0  0  0  0  0  0  0  0  0  0  0
   -2.5158   -0.9687    2.3832 H   0  0  0  0  0  0  0  0  0  0  0  0
   -3.4443   -4.6778   -1.6171 H   0  0  0  0  0  0  0  0  0  0  0  0
   -1.3690   -3.8544   -2.6721 H   0  0  0  0  0  0  0  0  0  0  0  0
   -0.1074   -2.0436   -1.6612 H   0  0  0  0  0  0  0  0  0  0  0  0
   -0.4022   -0.9981    1.6686 H   0  0  0  0  0  0  0  0  0  0  0  0
    0.4663   -0.0026   -1.0767 H   0  0  0  0  0  0  0  0  0  0  0  0
    1.6707   -0.8214    2.3345 H   0  0  0  0  0  0  0  0  0  0  0  0
    3.5773   -2.2514    2.8770 H   0  0  0  0  0  0  0  0  0  0  0  0
    4.9027   -3.2824    1.0663 H   0  0  0  0  0  0  0  0  0  0  0  0
    1.5352   -0.7380   -2.5144 H   0  0  0  0  0  0  0  0  0  0  0  0
    2.8965   -1.7504   -4.2235 H   0  0  0  0  0  0  0  0  0  0  0  0
    4.8069   -3.1977   -3.6370 H   0  0  0  0  0  0  0  0  0  0  0  0
    5.3397   -3.6126   -1.2649 H   0  0  0  0  0  0  0  0  0  0  0  0
    1.3609    3.4667   -2.0727 H   0  0  0  0  0  0  0  0  0  0  0  0
    0.7188    1.8892   -2.5143 H   0  0  0  0  0  0  0  0  0  0  0  0
    1.7948    2.7372   -3.6271 H   0  0  0  0  0  0  0  0  0  0  0  0
    3.8653    1.6011   -3.7508 H   0  0  0  0  0  0  0  0  0  0  0  0
    5.8163    0.5676   -2.6746 H   0  0  0  0  0  0  0  0  0  0  0  0
    5.8788    0.3026   -0.2191 H   0  0  0  0  0  0  0  0  0  0  0  0
    3.9521    1.0390    1.1380 H   0  0  0  0  0  0  0  0  0  0  0  0
   -0.6803    2.5538    1.1697 H   0  0  0  0  0  0  0  0  0  0  0  0
    0.9919    1.5519    4.2539 H   0  0  0  0  0  0  0  0  0  0  0  0
   -1.7246    3.0630   -1.5407 H   0  0  0  0  0  0  0  0  0  0  0  0
   -2.3921    5.4252   -1.2945 H   0  0  0  0  0  0  0  0  0  0  0  0
   -3.8933    6.0845    0.5541 H   0  0  0  0  0  0  0  0  0  0  0  0
   -4.7268    4.3908    2.1267 H   0  0  0  0  0  0  0  0  0  0  0  0
   -5.0302    2.1169    2.7453 H   0  0  0  0  0  0  0  0  0  0  0  0
   -4.5101    0.8375    1.6342 H   0  0  0  0  0  0  0  0  0  0  0  0
   -3.4007    1.4450    2.8589 H   0  0  0  0  0  0  0  0  0  0  0  0
  1  2  2  0  0  0  0
  2  3  4  0  0  0  0
  3  4  2  0  0  0  0
  4  5  4  0  0  0  0
  1  6  4  0  0  0  0
  5  6  4  0  0  0  0
  6  7  4  0  0  0  0
  7  8  2  0  0  0  0
  8  9  4  0  0  0  0
  5 10  4  0  0  0  0
  9 10  2  0  0  0  0
 10 11  1  0  0  0  0
 11 12  1  0  0  0  0
 12 13  1  0  0  0  0
 13 14  2  0  0  0  0
 14 15  4  0  0  0  0
 15 16  2  0  0  0  0
 16 17  4  0  0  0  0
 13 18  4  0  0  0  0
 17 18  4  0  0  0  0
 18 19  4  0  0  0  0
 19 20  2  0  0  0  0
 20 21  4  0  0  0  0
 17 22  4  0  0  0  0
 21 22  2  0  0  0  0
 12 23  1  0  0  0  0
 23 24  4  0  0  0  0
 24 25  1  0  0  0  0
 25 26  4  0  0  0  0
 26 27  1  0  0  0  0
 26 28  4  0  0  0  0
 28 29  4  0  0  0  0
 29 30  4  0  0  0  0
 25 31  4  0  0  0  0
 30 31  4  0  0  0  0
 24 32  2  0  0  0  0
 23 33  1  0  0  0  0
 33 34  1  0  0  0  0
 34 35  1  0  0  0  0
 34 36  2  0  0  0  0
 11 37  1  0  0  0  0
 33 37  1  0  0  0  0
 37 38  1  0  0  0  0
 38 39  1  0  0  0  0
 39 40  4  0  0  0  0
 40 41  4  0  0  0  0
 41 42  4  0  0  0  0
 42 43  4  0  0  0  0
 39 44  4  0  0  0  0
 43 44  4  0  0  0  0
 44 45  1  0  0  0  0
 38 46  2  0  0  0  0
  1 47  1  0  0  0  0
  2 48  1  0  0  0  0
  3 49  1  0  0  0  0
  4 50  1  0  0  0  0
  7 51  1  0  0  0  0
  8 52  1  0  0  0  0
  9 53  1  0  0  0  0
 11 54  1  0  0  0  0
 12 55  1  0  0  0  0
 14 56  1  0  0  0  0
 15 57  1  0  0  0  0
 16 58  1  0  0  0  0
 19 59  1  0  0  0  0
 20 60  1  0  0  0  0
 21 61  1  0  0  0  0
 22 62  1  0  0  0  0
 27 63  1  0  0  0  0
 27 64  1  0  0  0  0
 27 65  1  0  0  0  0
 28 66  1  0  0  0  0
 29 67  1  0  0  0  0
 30 68  1  0  0  0  0
 31 69  1  0  0  0  0
 33 70  1  0  0  0  0
 35 71  1  0  0  0  0
 40 72  1  0  0  0  0
 41 73  1  0  0  0  0
 42 74  1  0  0  0  0
 43 75  1  0  0  0  0
 45 76  1  0  0  0  0
 45 77  1  0  0  0  0
 45 78  1  0  0  0  0
M  END
