62

C      1.209569   -2.562836   -1.268521
O      1.260596   -1.846383   -2.436784
C      2.559005   -1.933802   -3.036721
C      1.262383   -3.957292   -1.305428
C      1.162047   -4.686009   -0.124377
C      0.991878   -4.022685    1.089720
C      0.914306   -2.629253    1.123623
C      1.029894   -1.873787   -0.056659
C      0.914576   -0.352121   -0.064234
C     -0.576579    0.076446   -0.110558
C     -0.878941    0.881802   -1.365688
C     -0.318371    2.154453   -1.558777
C     -0.571184    2.883065   -2.718985
C     -1.377548    2.346529   -3.712537
C     -1.935323    1.079337   -3.547498
C     -1.696496    0.344164   -2.383322
O     -2.198617   -0.908789   -2.157362
C     -3.299837   -1.318143   -2.956038
N     -0.809522    0.797626    1.151842
C     -1.998940    0.681051    1.863024
C     -3.248870    0.762696    1.126960
C     -4.370057    0.006833    1.407566
O     -5.404085    0.340263    0.592261
C     -4.962903    1.344850   -0.204367
C     -3.653269    1.650860    0.093287
O     -2.002676    0.516566    3.078610
C      0.414440    0.893261    1.937218
C      0.648825    2.404131    2.215058
O      0.393723    2.746980    3.502686
O      0.983586    3.267719    1.409346
N      1.460805    0.280181    1.137860
C      2.822792    0.249989    1.381521
C      3.344434    0.810408    2.619824
C      2.858640    0.696711    3.906297
O      3.610198    1.415933    4.778255
C      4.648758    1.926608    4.073385
C      4.551810    1.563203    2.752478
O      3.608839   -0.180380    0.539542
H      3.350825   -1.742748   -2.309145
H      2.705349   -2.906472   -3.514766
H      2.621254   -1.167673   -3.812144
H      1.365848   -4.476958   -2.253383
H      1.208164   -5.769969   -0.148785
H      0.907806   -4.597511    2.010051
H      0.759291   -2.147395    2.086513
H      1.495386    0.045530   -0.911306
H     -1.224496   -0.804733   -0.070574
H      0.334943    2.594009   -0.813311
H     -0.123071    3.865781   -2.852528
H     -1.564494    2.907597   -4.622260
H     -2.537130    0.684400   -4.359166
H     -3.689740   -2.246376   -2.532765
H     -4.109591   -0.580485   -2.935285
H     -2.984861   -1.526680   -3.980258
H     -4.578495   -0.767911    2.132979
H     -5.687102    1.746082   -0.898519
H     -3.081569    2.450703   -0.351568
H      0.329001    0.338361    2.875067
H      0.546434    3.715949    3.536071
H      2.019374    0.191714    4.357081
H      5.349977    2.518059    4.635621
H      5.239010    1.826543    1.959870
