
  xtb     03172200353D
 xtb: 6.3.3 (4ae9cef)
 62 66  0     0  0            999 V2000
    1.4164   -2.5392   -1.2227 C   0  0  0  0  0  0  0  0  0  0  0  0
    1.4461   -1.7003   -2.2938 O   0  0  0  0  0  0  0  0  0  0  0  0
    1.8583   -2.2101   -3.5388 C   0  0  0  0  0  0  0  0  0  0  0  0
    1.6102   -3.9143   -1.2924 C   0  0  0  0  0  0  0  0  0  0  0  0
    1.5377   -4.6882   -0.1461 C   0  0  0  0  0  0  0  0  0  0  0  0
    1.2739   -4.1067    1.0789 C   0  0  0  0  0  0  0  0  0  0  0  0
    1.0849   -2.7369    1.1544 C   0  0  0  0  0  0  0  0  0  0  0  0
    1.1584   -1.9464    0.0219 C   0  0  0  0  0  0  0  0  0  0  0  0
    0.9351   -0.4574    0.0869 C   0  0  0  0  0  0  0  0  0  0  0  0
   -0.5687   -0.1084    0.0620 C   0  0  0  0  0  0  0  0  0  0  0  0
   -0.9429    0.6835   -1.1644 C   0  0  0  0  0  0  0  0  0  0  0  0
   -0.4508    1.9659   -1.3447 C   0  0  0  0  0  0  0  0  0  0  0  0
   -0.8047    2.7068   -2.4589 C   0  0  0  0  0  0  0  0  0  0  0  0
   -1.6525    2.1568   -3.4011 C   0  0  0  0  0  0  0  0  0  0  0  0
   -2.1453    0.8723   -3.2418 C   0  0  0  0  0  0  0  0  0  0  0  0
   -1.7931    0.1223   -2.1267 C   0  0  0  0  0  0  0  0  0  0  0  0
   -2.2397   -1.1434   -1.8762 O   0  0  0  0  0  0  0  0  0  0  0  0
   -3.1544   -1.7246   -2.7737 C   0  0  0  0  0  0  0  0  0  0  0  0
   -0.7752    0.6517    1.2846 N   0  0  0  0  0  0  0  0  0  0  0  0
   -1.7779    1.5243    1.5337 C   0  0  0  0  0  0  0  0  0  0  0  0
   -2.9691    1.4123    0.6699 C   0  0  0  0  0  0  0  0  0  0  0  0
   -3.7285    0.3083    0.4000 C   0  0  0  0  0  0  0  0  0  0  0  0
   -4.7513    0.6252   -0.4032 O   0  0  0  0  0  0  0  0  0  0  0  0
   -4.6636    1.9420   -0.6609 C   0  0  0  0  0  0  0  0  0  0  0  0
   -3.5980    2.4868   -0.0201 C   0  0  0  0  0  0  0  0  0  0  0  0
   -1.6851    2.3271    2.4480 O   0  0  0  0  0  0  0  0  0  0  0  0
    0.4047    0.7218    2.1222 C   0  0  0  0  0  0  0  0  0  0  0  0
    0.6990    2.2031    2.4551 C   0  0  0  0  0  0  0  0  0  0  0  0
    0.7517    2.4181    3.7638 O   0  0  0  0  0  0  0  0  0  0  0  0
    0.9495    3.0250    1.6172 O   0  0  0  0  0  0  0  0  0  0  0  0
    1.4378    0.1183    1.3246 N   0  0  0  0  0  0  0  0  0  0  0  0
    2.7806    0.2553    1.4926 C   0  0  0  0  0  0  0  0  0  0  0  0
    3.1934    0.8545    2.7838 C   0  0  0  0  0  0  0  0  0  0  0  0
    2.9949    0.3676    4.0449 C   0  0  0  0  0  0  0  0  0  0  0  0
    3.5774    1.1578    4.9550 O   0  0  0  0  0  0  0  0  0  0  0  0
    4.1588    2.1688    4.2891 C   0  0  0  0  0  0  0  0  0  0  0  0
    3.9710    2.0347    2.9500 C   0  0  0  0  0  0  0  0  0  0  0  0
    3.5714   -0.1200    0.6538 O   0  0  0  0  0  0  0  0  0  0  0  0
    2.8509   -2.6664   -3.4765 H   0  0  0  0  0  0  0  0  0  0  0  0
    1.1431   -2.9406   -3.9318 H   0  0  0  0  0  0  0  0  0  0  0  0
    1.8982   -1.3516   -4.2079 H   0  0  0  0  0  0  0  0  0  0  0  0
    1.8180   -4.3934   -2.2363 H   0  0  0  0  0  0  0  0  0  0  0  0
    1.6894   -5.7552   -0.2193 H   0  0  0  0  0  0  0  0  0  0  0  0
    1.2166   -4.7123    1.9706 H   0  0  0  0  0  0  0  0  0  0  0  0
    0.8856   -2.2710    2.1085 H   0  0  0  0  0  0  0  0  0  0  0  0
    1.4594    0.0037   -0.7581 H   0  0  0  0  0  0  0  0  0  0  0  0
   -1.1609   -1.0294    0.0923 H   0  0  0  0  0  0  0  0  0  0  0  0
    0.1972    2.3954   -0.5945 H   0  0  0  0  0  0  0  0  0  0  0  0
   -0.4218    3.7071   -2.5858 H   0  0  0  0  0  0  0  0  0  0  0  0
   -1.9403    2.7265   -4.2723 H   0  0  0  0  0  0  0  0  0  0  0  0
   -2.8072    0.4678   -3.9911 H   0  0  0  0  0  0  0  0  0  0  0  0
   -3.3720   -2.7124   -2.3700 H   0  0  0  0  0  0  0  0  0  0  0  0
   -4.0814   -1.1451   -2.8314 H   0  0  0  0  0  0  0  0  0  0  0  0
   -2.7252   -1.8317   -3.7746 H   0  0  0  0  0  0  0  0  0  0  0  0
   -3.6526   -0.7100    0.7254 H   0  0  0  0  0  0  0  0  0  0  0  0
   -5.4110    2.3691   -1.2993 H   0  0  0  0  0  0  0  0  0  0  0  0
   -3.2712    3.5050   -0.0328 H   0  0  0  0  0  0  0  0  0  0  0  0
    0.2341    0.1881    3.0727 H   0  0  0  0  0  0  0  0  0  0  0  0
    0.8569    3.3652    3.9463 H   0  0  0  0  0  0  0  0  0  0  0  0
    2.4949   -0.5109    4.4013 H   0  0  0  0  0  0  0  0  0  0  0  0
    4.6747    2.9080    4.8691 H   0  0  0  0  0  0  0  0  0  0  0  0
    4.3142    2.6798    2.1685 H   0  0  0  0  0  0  0  0  0  0  0  0
  1  2  1  0  0  0  0
  2  3  1  0  0  0  0
  1  4  4  0  0  0  0
  4  5  4  0  0  0  0
  5  6  4  0  0  0  0
  6  7  4  0  0  0  0
  1  8  4  0  0  0  0
  7  8  4  0  0  0  0
  8  9  1  0  0  0  0
  9 10  1  0  0  0  0
 10 11  1  0  0  0  0
 11 12  4  0  0  0  0
 12 13  4  0  0  0  0
 13 14  4  0  0  0  0
 14 15  4  0  0  0  0
 11 16  4  0  0  0  0
 15 16  4  0  0  0  0
 16 17  1  0  0  0  0
 17 18  1  0  0  0  0
 10 19  1  0  0  0  0
 19 20  4  0  0  0  0
 20 21  1  0  0  0  0
 21 22  2  0  0  0  0
 22 23  1  0  0  0  0
 23 24  1  0  0  0  0
 21 25  4  0  0  0  0
 24 25  2  0  0  0  0
 20 26  2  0  0  0  0
 19 27  1  0  0  0  0
 27 28  1  0  0  0  0
 28 29  1  0  0  0  0
 28 30  2  0  0  0  0
  9 31  1  0  0  0  0
 27 31  1  0  0  0  0
 31 32  4  0  0  0  0
 32 33  1  0  0  0  0
 33 34  2  0  0  0  0
 34 35  1  0  0  0  0
 35 36  1  0  0  0  0
 33 37  4  0  0  0  0
 36 37  2  0  0  0  0
 32 38  2  0  0  0  0
  3 39  1  0  0  0  0
  3 40  1  0  0  0  0
  3 41  1  0  0  0  0
  4 42  1  0  0  0  0
  5 43  1  0  0  0  0
  6 44  1  0  0  0  0
  7 45  1  0  0  0  0
  9 46  1  0  0  0  0
 10 47  1  0  0  0  0
 12 48  1  0  0  0  0
 13 49  1  0  0  0  0
 14 50  1  0  0  0  0
 15 51  1  0  0  0  0
 18 52  1  0  0  0  0
 18 53  1  0  0  0  0
 18 54  1  0  0  0  0
 22 55  1  0  0  0  0
 24 56  1  0  0  0  0
 25 57  1  0  0  0  0
 27 58  1  0  0  0  0
 29 59  1  0  0  0  0
 34 60  1  0  0  0  0
 36 61  1  0  0  0  0
 37 62  1  0  0  0  0
M  END
