76

C     -1.870087    1.937676   -0.741473
C     -2.733932    2.981445   -0.404164
C     -3.063270    3.228294    0.934621
C     -3.938327    4.265672    1.292423
C     -4.252716    4.503665    2.630382
C     -3.696839    3.706470    3.626502
C     -2.826173    2.669102    3.286898
C     -2.500384    2.417386    1.945338
C     -1.635434    1.368234    1.587921
C     -1.327392    1.101858    0.246382
C     -0.435673   -0.051785   -0.167578
C      1.063246    0.190482    0.159306
C      1.790328    0.698958   -1.075182
C      2.214223    2.037002   -1.126895
C      2.853837    2.557064   -2.265031
C      3.287074    3.892137   -2.316680
C      3.919595    4.395029   -3.455229
C      4.124033    3.569693   -4.557514
C      3.700783    2.240800   -4.522007
C      3.068161    1.719918   -3.382738
C      2.647831    0.383456   -3.329672
C      2.018018   -0.121896   -2.190047
N      1.540348   -1.108659    0.636437
C      2.863016   -1.301564    0.991822
C      3.346573   -2.673787    1.272464
C      3.116858   -3.718261    0.367958
C      3.605922   -4.996853    0.646313
C      4.337748   -5.213972    1.821295
N      4.849381   -6.551757    2.112753
O      5.105915   -7.286351    1.147774
O      4.992456   -6.863065    3.304480
C      4.592105   -4.171138    2.718705
C      4.105180   -2.894846    2.430553
O      3.678865   -0.385158    1.062756
C      0.422404   -1.940041    1.071672
C      0.292777   -1.986905    2.631670
O     -0.912768   -1.628957    3.131334
O      1.168426   -2.331639    3.414353
N     -0.751744   -1.342955    0.457128
C     -1.875042   -2.122415    0.278707
C     -3.053518   -1.510489   -0.356980
C     -4.074562   -1.013660    0.462832
C     -5.169818   -0.369014   -0.115027
C     -5.239732   -0.249215   -1.511711
N     -6.370265    0.457587   -2.123844
O     -6.283269    0.744706   -3.327225
O     -7.339884    0.728722   -1.401584
C     -4.237642   -0.792761   -2.332939
C     -3.140317   -1.431966   -1.750502
O     -1.950361   -3.290419    0.647642
H     -1.632532    1.781856   -1.792150
H     -3.147958    3.602176   -1.197586
H     -4.378656    4.899716    0.527633
H     -4.927598    5.313975    2.892306
H     -3.937982    3.892913    4.669317
H     -2.403574    2.056316    4.079676
H     -1.216458    0.741747    2.369233
H     -0.575292   -0.225533   -1.243030
H      1.193082    0.891185    0.993984
H      2.046088    2.687221   -0.266335
H      3.142889    4.551023   -1.462971
H      4.255979    5.429060   -3.477608
H      4.615901    3.957769   -5.444724
H      3.875651    1.609497   -5.391915
H      2.813598   -0.278244   -4.178577
H      1.707823   -1.163585   -2.182474
H      2.565122   -3.548601   -0.551164
H      3.410951   -5.810900   -0.048432
H      5.161545   -4.335228    3.630495
H      4.299864   -2.072184    3.117329
H      0.540177   -2.968462    0.721015
H     -0.830740   -1.818163    4.090854
H     -4.000864   -1.105172    1.545337
H     -5.947779    0.036318    0.531657
H     -4.296493   -0.718258   -3.417071
H     -2.358695   -1.852271   -2.379196
