66

C     -2.593266   -2.942971   -0.769717
C     -2.942598   -3.340753    0.650782
F     -3.695300   -4.476893    0.730202
F     -3.641162   -2.393347    1.327719
F     -1.832576   -3.596656    1.402463
C     -3.224758   -3.634129   -1.825585
C     -2.918308   -3.358541   -3.155906
C     -1.969411   -2.392497   -3.454936
C     -1.340248   -1.690821   -2.426114
C     -1.646074   -1.929564   -1.072833
C     -0.948266   -1.117250    0.018264
C      0.582751   -1.370105    0.107696
C      0.960386   -1.914147    1.494075
C      1.360297   -3.259368    1.685487
C      1.454844   -4.255083    0.547216
F      2.486908   -4.004543   -0.300667
F      0.328915   -4.276827   -0.223484
F      1.627267   -5.542890    0.965671
C      1.692397   -3.697135    2.984089
C      1.617462   -2.838451    4.078172
C      1.207785   -1.525011    3.897810
C      0.880074   -1.067667    2.622033
N      1.202698   -0.066685   -0.158078
C      2.580177    0.063532   -0.185196
C      3.163190    1.416052   -0.276704
C      3.814757    1.878469   -1.426942
I      4.006415    0.744060   -3.178028
C      4.353132    3.170719   -1.438032
C      4.254263    3.984615   -0.306810
C      3.627841    3.512422    0.845289
C      3.091160    2.225819    0.866636
O      3.351628   -0.886200   -0.099368
C      0.211150    0.994410   -0.298130
C      0.322556    1.710766   -1.669368
O      0.488744    3.048372   -1.541890
O      0.278092    1.217534   -2.784412
N     -1.084925    0.332917   -0.167908
C     -2.285761    0.951139    0.133687
C     -2.366938    2.419528    0.063801
C     -1.991161    3.140351    1.206531
C     -2.062901    4.532567    1.203674
C     -2.525027    5.202803    0.071272
C     -2.927337    4.484450   -1.058235
C     -2.858008    3.086761   -1.064709
I     -3.504978    2.093707   -2.790848
O     -3.292294    0.348545    0.489785
H     -3.961605   -4.407635   -1.611833
H     -3.413054   -3.904204   -3.955818
H     -1.714675   -2.177926   -4.489594
H     -0.597831   -0.950887   -2.705628
H     -1.427206   -1.330723    0.979158
H      0.943136   -2.041438   -0.677005
H      2.012713   -4.726226    3.150211
H      1.876358   -3.198642    5.070271
H      1.145551   -0.855424    4.750804
H      0.560092   -0.034690    2.518083
H      4.858446    3.555878   -2.320494
H      4.680667    4.985413   -0.320811
H      3.571826    4.142949    1.729382
H      2.632161    1.849506    1.777896
H      0.342209    1.712984    0.515839
H      0.525206    3.365036   -2.470761
H     -1.660390    2.619358    2.102045
H     -1.774906    5.096181    2.088341
H     -2.589590    6.288841    0.073128
H     -3.302700    5.029644   -1.921673
