66

C     -1.453420    2.617803    2.148794
C     -1.775755    3.753708    1.198999
F     -0.791902    3.930973    0.271090
F     -2.917612    3.542516    0.493071
F     -1.926579    4.961364    1.808633
C     -1.577453    2.847134    3.533505
C     -1.275055    1.849857    4.457278
C     -0.846719    0.606723    4.013307
C     -0.728231    0.353567    2.646235
C     -1.034461    1.340312    1.688021
C     -0.884913    1.053133    0.184298
C      0.579226    1.273611   -0.304829
C      0.738051    1.933387   -1.685349
C      1.942606    2.597366   -2.052398
C      3.151164    2.689039   -1.136992
F      4.156479    3.461757   -1.635666
F      2.860888    3.206401    0.083625
F      3.703852    1.461995   -0.930736
C      2.053139    3.172919   -3.336486
C      1.009975    3.100952   -4.254024
C     -0.161515    2.446045   -3.908552
C     -0.296101    1.868457   -2.644949
N      1.141295   -0.098416   -0.338110
C      2.134081   -0.420323    0.593673
C      2.661498   -1.778259    0.596795
C      3.121108   -2.409050    1.747028
C      3.180615   -1.981544    3.172213
F      3.437520   -3.018561    4.012833
F      4.135869   -1.048440    3.398495
F      1.991329   -1.458007    3.574156
O      3.558437   -3.669191    1.447682
C      3.415559   -3.839183    0.112409
C      2.878851   -2.710526   -0.460239
O      2.556984    0.400555    1.397895
C      0.044514   -1.048046   -0.574819
C      0.014875   -1.472766   -2.077625
O      1.098128   -1.076495   -2.791698
O     -0.876946   -2.135164   -2.588702
N     -1.159695   -0.346834   -0.154496
C     -2.447499   -0.840416   -0.096778
C     -2.642941   -2.275692   -0.150237
C     -3.576418   -2.888769   -0.972111
C     -4.522195   -2.351365   -1.984096
F     -4.024410   -1.260871   -2.625585
F     -4.823487   -3.260046   -2.949478
F     -5.701549   -1.975836   -1.424842
O     -3.562215   -4.241569   -0.765941
C     -2.636191   -4.492276    0.191912
C     -2.049581   -3.322383    0.612854
O     -3.414158   -0.091813    0.007118
H     -1.906413    3.818590    3.902618
H     -1.368883    2.045715    5.522815
H     -0.598564   -0.170365    4.733003
H     -0.387415   -0.634002    2.351569
H     -1.615567    1.670611   -0.344534
H      1.095463    1.906414    0.421310
H      2.968799    3.685810   -3.633211
H      1.113606    3.550760   -5.238725
H     -0.977965    2.378423   -4.625205
H     -1.238174    1.358026   -2.450182
H      3.746416   -4.793395   -0.277310
H      2.704039   -2.590698   -1.519943
H      0.172790   -1.950142    0.025165
H      1.669469   -0.462235   -2.284200
H     -2.525365   -5.531649    0.471630
H     -1.311277   -3.239595    1.398018
