
  xtb     03172201453D
 xtb: 6.3.3 (4ae9cef)
 66 70  0     0  0            999 V2000
   -1.1609    2.5990    2.3130 C   0  0  0  0  0  0  0  0  0  0  0  0
   -1.4205    3.7682    1.4007 C   0  0  0  0  0  0  0  0  0  0  0  0
   -0.4576    3.9376    0.4670 F   0  0  0  0  0  0  0  0  0  0  0  0
   -2.5696    3.6474    0.7094 F   0  0  0  0  0  0  0  0  0  0  0  0
   -1.5028    4.9318    2.0528 F   0  0  0  0  0  0  0  0  0  0  0  0
   -1.1546    2.8182    3.6840 C   0  0  0  0  0  0  0  0  0  0  0  0
   -0.9409    1.7661    4.5557 C   0  0  0  0  0  0  0  0  0  0  0  0
   -0.7376    0.4931    4.0574 C   0  0  0  0  0  0  0  0  0  0  0  0
   -0.7400    0.2757    2.6915 C   0  0  0  0  0  0  0  0  0  0  0  0
   -0.9509    1.3153    1.7986 C   0  0  0  0  0  0  0  0  0  0  0  0
   -0.9241    1.0793    0.3052 C   0  0  0  0  0  0  0  0  0  0  0  0
    0.4863    1.3145   -0.2701 C   0  0  0  0  0  0  0  0  0  0  0  0
    0.4815    1.7978   -1.7088 C   0  0  0  0  0  0  0  0  0  0  0  0
    1.6270    2.3665   -2.2836 C   0  0  0  0  0  0  0  0  0  0  0  0
    2.9363    2.4078   -1.5388 C   0  0  0  0  0  0  0  0  0  0  0  0
    3.9229    2.9663   -2.2463 F   0  0  0  0  0  0  0  0  0  0  0  0
    2.8973    3.0551   -0.3726 F   0  0  0  0  0  0  0  0  0  0  0  0
    3.3615    1.1412   -1.2695 F   0  0  0  0  0  0  0  0  0  0  0  0
    1.6109    2.8338   -3.5916 C   0  0  0  0  0  0  0  0  0  0  0  0
    0.4643    2.7279   -4.3570 C   0  0  0  0  0  0  0  0  0  0  0  0
   -0.6588    2.1302   -3.8179 C   0  0  0  0  0  0  0  0  0  0  0  0
   -0.6487    1.6734   -2.5110 C   0  0  0  0  0  0  0  0  0  0  0  0
    1.0893   -0.0223   -0.1669 N   0  0  0  0  0  0  0  0  0  0  0  0
    2.0117   -0.2579    0.8391 C   0  0  0  0  0  0  0  0  0  0  0  0
    2.5172   -1.6511    0.9058 C   0  0  0  0  0  0  0  0  0  0  0  0
    2.9901   -2.2603    2.0464 C   0  0  0  0  0  0  0  0  0  0  0  0
    2.9752   -1.8070    3.4740 C   0  0  0  0  0  0  0  0  0  0  0  0
    3.2186   -2.8274    4.3054 F   0  0  0  0  0  0  0  0  0  0  0  0
    3.8743   -0.8622    3.7419 F   0  0  0  0  0  0  0  0  0  0  0  0
    1.7702   -1.3184    3.8137 F   0  0  0  0  0  0  0  0  0  0  0  0
    3.4788   -3.4750    1.7701 O   0  0  0  0  0  0  0  0  0  0  0  0
    3.3532   -3.6630    0.4535 C   0  0  0  0  0  0  0  0  0  0  0  0
    2.7678   -2.5864   -0.1390 C   0  0  0  0  0  0  0  0  0  0  0  0
    2.4440    0.6158    1.5454 O   0  0  0  0  0  0  0  0  0  0  0  0
    0.0485   -0.9559   -0.5192 C   0  0  0  0  0  0  0  0  0  0  0  0
    0.0567   -1.2289   -2.0559 C   0  0  0  0  0  0  0  0  0  0  0  0
    1.2127   -0.9570   -2.6477 O   0  0  0  0  0  0  0  0  0  0  0  0
   -0.8721   -1.7135   -2.6264 O   0  0  0  0  0  0  0  0  0  0  0  0
   -1.1672   -0.3149   -0.0521 N   0  0  0  0  0  0  0  0  0  0  0  0
   -2.4112   -0.8449    0.0807 C   0  0  0  0  0  0  0  0  0  0  0  0
   -2.5433   -2.2729   -0.3160 C   0  0  0  0  0  0  0  0  0  0  0  0
   -3.2500   -2.7417   -1.3920 C   0  0  0  0  0  0  0  0  0  0  0  0
   -3.9503   -1.9900   -2.4770 C   0  0  0  0  0  0  0  0  0  0  0  0
   -3.5310   -0.7211   -2.5451 F   0  0  0  0  0  0  0  0  0  0  0  0
   -3.7619   -2.5373   -3.6806 F   0  0  0  0  0  0  0  0  0  0  0  0
   -5.2810   -1.9431   -2.2905 F   0  0  0  0  0  0  0  0  0  0  0  0
   -3.2325   -4.0819   -1.4266 O   0  0  0  0  0  0  0  0  0  0  0  0
   -2.5281   -4.4928   -0.3702 C   0  0  0  0  0  0  0  0  0  0  0  0
   -2.0735   -3.4324    0.3547 C   0  0  0  0  0  0  0  0  0  0  0  0
   -3.3397   -0.1928    0.4945 O   0  0  0  0  0  0  0  0  0  0  0  0
   -1.3183    3.8138    4.0657 H   0  0  0  0  0  0  0  0  0  0  0  0
   -0.9369    1.9440    5.6193 H   0  0  0  0  0  0  0  0  0  0  0  0
   -0.5684   -0.3346    4.7270 H   0  0  0  0  0  0  0  0  0  0  0  0
   -0.5836   -0.7254    2.3199 H   0  0  0  0  0  0  0  0  0  0  0  0
   -1.6853    1.7041   -0.1653 H   0  0  0  0  0  0  0  0  0  0  0  0
    1.0629    1.9901    0.3656 H   0  0  0  0  0  0  0  0  0  0  0  0
    2.5013    3.2769   -4.0093 H   0  0  0  0  0  0  0  0  0  0  0  0
    0.4586    3.0977   -5.3698 H   0  0  0  0  0  0  0  0  0  0  0  0
   -1.5539    2.0120   -4.4075 H   0  0  0  0  0  0  0  0  0  0  0  0
   -1.5468    1.2068   -2.1403 H   0  0  0  0  0  0  0  0  0  0  0  0
    3.7117   -4.5898    0.0515 H   0  0  0  0  0  0  0  0  0  0  0  0
    2.5705   -2.4708   -1.1840 H   0  0  0  0  0  0  0  0  0  0  0  0
    0.1935   -1.9324   -0.0350 H   0  0  0  0  0  0  0  0  0  0  0  0
    1.8316   -0.4869   -2.0567 H   0  0  0  0  0  0  0  0  0  0  0  0
   -2.4187   -5.5502   -0.2316 H   0  0  0  0  0  0  0  0  0  0  0  0
   -1.5061   -3.4650    1.2623 H   0  0  0  0  0  0  0  0  0  0  0  0
  1  2  1  0  0  0  0
  2  3  1  0  0  0  0
  2  4  1  0  0  0  0
  2  5  1  0  0  0  0
  1  6  4  0  0  0  0
  6  7  4  0  0  0  0
  7  8  4  0  0  0  0
  8  9  4  0  0  0  0
  1 10  4  0  0  0  0
  9 10  4  0  0  0  0
 10 11  1  0  0  0  0
 11 12  1  0  0  0  0
 12 13  1  0  0  0  0
 13 14  4  0  0  0  0
 14 15  1  0  0  0  0
 15 16  1  0  0  0  0
 15 17  1  0  0  0  0
 15 18  1  0  0  0  0
 14 19  4  0  0  0  0
 19 20  4  0  0  0  0
 20 21  4  0  0  0  0
 13 22  4  0  0  0  0
 21 22  4  0  0  0  0
 12 23  1  0  0  0  0
 23 24  1  0  0  0  0
 24 25  1  0  0  0  0
 25 26  2  0  0  0  0
 26 27  1  0  0  0  0
 27 28  1  0  0  0  0
 27 29  1  0  0  0  0
 27 30  1  0  0  0  0
 26 31  1  0  0  0  0
 31 32  1  0  0  0  0
 25 33  4  0  0  0  0
 32 33  2  0  0  0  0
 24 34  2  0  0  0  0
 23 35  1  0  0  0  0
 35 36  1  0  0  0  0
 36 37  1  0  0  0  0
 36 38  2  0  0  0  0
 11 39  1  0  0  0  0
 35 39  1  0  0  0  0
 39 40  1  0  0  0  0
 40 41  1  0  0  0  0
 41 42  2  0  0  0  0
 42 43  1  0  0  0  0
 43 44  1  0  0  0  0
 43 45  1  0  0  0  0
 43 46  1  0  0  0  0
 42 47  1  0  0  0  0
 47 48  1  0  0  0  0
 41 49  4  0  0  0  0
 48 49  2  0  0  0  0
 40 50  2  0  0  0  0
  6 51  1  0  0  0  0
  7 52  1  0  0  0  0
  8 53  1  0  0  0  0
  9 54  1  0  0  0  0
 11 55  1  0  0  0  0
 12 56  1  0  0  0  0
 19 57  1  0  0  0  0
 20 58  1  0  0  0  0
 21 59  1  0  0  0  0
 22 60  1  0  0  0  0
 32 61  1  0  0  0  0
 33 62  1  0  0  0  0
 35 63  1  0  0  0  0
 37 64  1  0  0  0  0
 48 65  1  0  0  0  0
 49 66  1  0  0  0  0
M  END
