
  xtb     03172201503D
 xtb: 6.3.3 (4ae9cef)
 72 78  0     0  0            999 V2000
   -1.9738    2.5677    0.1567 C   0  0  0  0  0  0  0  0  0  0  0  0
   -2.5719    3.5333    0.9140 C   0  0  0  0  0  0  0  0  0  0  0  0
   -2.6733    3.3959    2.3140 C   0  0  0  0  0  0  0  0  0  0  0  0
   -3.2972    4.3677    3.1232 C   0  0  0  0  0  0  0  0  0  0  0  0
   -3.3805    4.2003    4.4770 C   0  0  0  0  0  0  0  0  0  0  0  0
   -2.8427    3.0542    5.0838 C   0  0  0  0  0  0  0  0  0  0  0  0
   -2.2306    2.0951    4.3270 C   0  0  0  0  0  0  0  0  0  0  0  0
   -2.1300    2.2369    2.9271 C   0  0  0  0  0  0  0  0  0  0  0  0
   -1.5073    1.2651    2.1197 C   0  0  0  0  0  0  0  0  0  0  0  0
   -1.4393    1.4144    0.7598 C   0  0  0  0  0  0  0  0  0  0  0  0
   -0.7497    0.3949   -0.1054 C   0  0  0  0  0  0  0  0  0  0  0  0
    0.7775    0.5954   -0.1108 C   0  0  0  0  0  0  0  0  0  0  0  0
    1.2298    1.3369   -1.3394 C   0  0  0  0  0  0  0  0  0  0  0  0
    1.6412    2.6391   -1.2549 C   0  0  0  0  0  0  0  0  0  0  0  0
    2.0253    3.3546   -2.4067 C   0  0  0  0  0  0  0  0  0  0  0  0
    2.4549    4.6965   -2.3454 C   0  0  0  0  0  0  0  0  0  0  0  0
    2.8288    5.3620   -3.4790 C   0  0  0  0  0  0  0  0  0  0  0  0
    2.7889    4.7177   -4.7255 C   0  0  0  0  0  0  0  0  0  0  0  0
    2.3751    3.4183   -4.8177 C   0  0  0  0  0  0  0  0  0  0  0  0
    1.9833    2.7038   -3.6670 C   0  0  0  0  0  0  0  0  0  0  0  0
    1.5489    1.3627   -3.7245 C   0  0  0  0  0  0  0  0  0  0  0  0
    1.1752    0.6970   -2.5936 C   0  0  0  0  0  0  0  0  0  0  0  0
    1.3025   -0.7620   -0.0459 N   0  0  0  0  0  0  0  0  0  0  0  0
    2.6114   -1.0329   -0.2924 C   0  0  0  0  0  0  0  0  0  0  0  0
    2.9347   -2.4840   -0.3206 C   0  0  0  0  0  0  0  0  0  0  0  0
    3.1492   -3.2321   -1.4420 C   0  0  0  0  0  0  0  0  0  0  0  0
    3.4503   -4.4964   -1.1176 O   0  0  0  0  0  0  0  0  0  0  0  0
    3.4538   -4.5694    0.2256 C   0  0  0  0  0  0  0  0  0  0  0  0
    3.1454   -3.3650    0.7844 C   0  0  0  0  0  0  0  0  0  0  0  0
    3.0507   -3.0243    2.2311 C   0  0  0  0  0  0  0  0  0  0  0  0
    3.4308   -0.1626   -0.4836 O   0  0  0  0  0  0  0  0  0  0  0  0
    0.2929   -1.7387    0.2769 C   0  0  0  0  0  0  0  0  0  0  0  0
    0.1545   -2.7894   -0.8446 C   0  0  0  0  0  0  0  0  0  0  0  0
    0.2762   -4.0301   -0.3799 O   0  0  0  0  0  0  0  0  0  0  0  0
   -0.0724   -2.5231   -1.9913 O   0  0  0  0  0  0  0  0  0  0  0  0
   -0.9221   -0.9653    0.3859 N   0  0  0  0  0  0  0  0  0  0  0  0
   -2.1788   -1.4888    0.4881 C   0  0  0  0  0  0  0  0  0  0  0  0
   -2.2283   -2.9127    0.8955 C   0  0  0  0  0  0  0  0  0  0  0  0
   -1.7897   -3.4956    2.0492 C   0  0  0  0  0  0  0  0  0  0  0  0
   -2.0749   -4.8034    2.0581 O   0  0  0  0  0  0  0  0  0  0  0  0
   -2.7008   -5.0798    0.8982 C   0  0  0  0  0  0  0  0  0  0  0  0
   -2.8412   -3.9593    0.1369 C   0  0  0  0  0  0  0  0  0  0  0  0
   -3.4642   -3.8058   -1.2033 C   0  0  0  0  0  0  0  0  0  0  0  0
   -3.1697   -0.8260    0.2768 O   0  0  0  0  0  0  0  0  0  0  0  0
   -1.9047    2.6766   -0.9156 H   0  0  0  0  0  0  0  0  0  0  0  0
   -2.9841    4.4164    0.4475 H   0  0  0  0  0  0  0  0  0  0  0  0
   -3.7110    5.2474    2.6511 H   0  0  0  0  0  0  0  0  0  0  0  0
   -3.8617    4.9475    5.0910 H   0  0  0  0  0  0  0  0  0  0  0  0
   -2.9186    2.9378    6.1551 H   0  0  0  0  0  0  0  0  0  0  0  0
   -1.8171    1.2104    4.7903 H   0  0  0  0  0  0  0  0  0  0  0  0
   -1.0953    0.3841    2.5928 H   0  0  0  0  0  0  0  0  0  0  0  0
   -1.1433    0.4623   -1.1290 H   0  0  0  0  0  0  0  0  0  0  0  0
    1.0919    1.1446    0.7877 H   0  0  0  0  0  0  0  0  0  0  0  0
    1.6810    3.1367   -0.2961 H   0  0  0  0  0  0  0  0  0  0  0  0
    2.4850    5.1873   -1.3831 H   0  0  0  0  0  0  0  0  0  0  0  0
    3.1590    6.3893   -3.4249 H   0  0  0  0  0  0  0  0  0  0  0  0
    3.0894    5.2589   -5.6109 H   0  0  0  0  0  0  0  0  0  0  0  0
    2.3432    2.9179   -5.7752 H   0  0  0  0  0  0  0  0  0  0  0  0
    1.5149    0.8685   -4.6850 H   0  0  0  0  0  0  0  0  0  0  0  0
    0.8410   -0.3292   -2.6497 H   0  0  0  0  0  0  0  0  0  0  0  0
    3.1040   -2.9746   -2.4814 H   0  0  0  0  0  0  0  0  0  0  0  0
    3.6910   -5.5164    0.6674 H   0  0  0  0  0  0  0  0  0  0  0  0
    3.8526   -3.5068    2.7850 H   0  0  0  0  0  0  0  0  0  0  0  0
    3.1250   -1.9485    2.3695 H   0  0  0  0  0  0  0  0  0  0  0  0
    2.1036   -3.3704    2.6469 H   0  0  0  0  0  0  0  0  0  0  0  0
    0.5192   -2.2682    1.2145 H   0  0  0  0  0  0  0  0  0  0  0  0
    0.1684   -4.6850   -1.0900 H   0  0  0  0  0  0  0  0  0  0  0  0
   -1.3108   -3.0886    2.9180 H   0  0  0  0  0  0  0  0  0  0  0  0
   -3.0043   -6.0942    0.7332 H   0  0  0  0  0  0  0  0  0  0  0  0
   -2.7176   -3.5077   -1.9397 H   0  0  0  0  0  0  0  0  0  0  0  0
   -4.2183   -3.0219   -1.1671 H   0  0  0  0  0  0  0  0  0  0  0  0
   -3.9250   -4.7372   -1.5203 H   0  0  0  0  0  0  0  0  0  0  0  0
  1  2  2  0  0  0  0
  2  3  4  0  0  0  0
  3  4  4  0  0  0  0
  4  5  2  0  0  0  0
  5  6  4  0  0  0  0
  6  7  2  0  0  0  0
  3  8  4  0  0  0  0
  7  8  4  0  0  0  0
  8  9  4  0  0  0  0
  1 10  4  0  0  0  0
  9 10  2  0  0  0  0
 10 11  1  0  0  0  0
 11 12  1  0  0  0  0
 12 13  1  0  0  0  0
 13 14  2  0  0  0  0
 14 15  4  0  0  0  0
 15 16  4  0  0  0  0
 16 17  2  0  0  0  0
 17 18  4  0  0  0  0
 18 19  2  0  0  0  0
 15 20  4  0  0  0  0
 19 20  4  0  0  0  0
 20 21  4  0  0  0  0
 13 22  4  0  0  0  0
 21 22  2  0  0  0  0
 12 23  1  0  0  0  0
 23 24  4  0  0  0  0
 24 25  1  0  0  0  0
 25 26  2  0  0  0  0
 26 27  1  0  0  0  0
 27 28  1  0  0  0  0
 25 29  4  0  0  0  0
 28 29  2  0  0  0  0
 29 30  1  0  0  0  0
 24 31  2  0  0  0  0
 23 32  1  0  0  0  0
 32 33  1  0  0  0  0
 33 34  1  0  0  0  0
 33 35  2  0  0  0  0
 11 36  1  0  0  0  0
 32 36  1  0  0  0  0
 36 37  1  0  0  0  0
 37 38  1  0  0  0  0
 38 39  2  0  0  0  0
 39 40  1  0  0  0  0
 40 41  1  0  0  0  0
 38 42  4  0  0  0  0
 41 42  2  0  0  0  0
 42 43  1  0  0  0  0
 37 44  2  0  0  0  0
  1 45  1  0  0  0  0
  2 46  1  0  0  0  0
  4 47  1  0  0  0  0
  5 48  1  0  0  0  0
  6 49  1  0  0  0  0
  7 50  1  0  0  0  0
  9 51  1  0  0  0  0
 11 52  1  0  0  0  0
 12 53  1  0  0  0  0
 14 54  1  0  0  0  0
 16 55  1  0  0  0  0
 17 56  1  0  0  0  0
 18 57  1  0  0  0  0
 19 58  1  0  0  0  0
 21 59  1  0  0  0  0
 22 60  1  0  0  0  0
 26 61  1  0  0  0  0
 28 62  1  0  0  0  0
 30 63  1  0  0  0  0
 30 64  1  0  0  0  0
 30 65  1  0  0  0  0
 32 66  1  0  0  0  0
 34 67  1  0  0  0  0
 39 68  1  0  0  0  0
 41 69  1  0  0  0  0
 43 70  1  0  0  0  0
 43 71  1  0  0  0  0
 43 72  1  0  0  0  0
M  END
