70

C      1.542061   -3.635002    0.474736
O      0.679215   -4.115302   -0.477578
C      1.390159   -4.508971   -1.653057
C      2.395848   -4.518091    1.141637
C      3.242295   -4.043374    2.140960
C      3.220520   -2.693823    2.484056
C      2.352442   -1.817289    1.827996
C      1.496993   -2.272711    0.810329
C      0.512365   -1.344325    0.116266
C     -0.726791   -1.063147    1.002098
C     -1.947701   -1.833943    0.511253
C     -2.463298   -2.847101    1.343027
C     -3.562777   -3.608355    0.953065
C     -4.168317   -3.366603   -0.273907
C     -3.672370   -2.367739   -1.114535
C     -2.558820   -1.605106   -0.738391
O     -2.022733   -0.608095   -1.517256
C     -2.338786   -0.659168   -2.905957
N     -0.896391    0.391878    0.978194
C     -1.942081    0.993923    1.647887
C     -2.203539    2.423577    1.402152
C     -2.146635    3.357123    2.444662
C     -1.799147    2.988452    3.786807
N     -1.509394    2.755847    4.886344
C     -2.410541    4.704175    2.158957
C     -2.747084    5.103583    0.861927
C     -2.832835    4.161284   -0.162684
C     -2.570229    2.819214    0.105675
O     -2.692148    0.418776    2.426851
C      0.205010    1.043827    0.284220
C      0.993904    1.966394    1.259673
O      0.877873    3.291928    0.975866
O      1.654568    1.584375    2.215125
N      1.073778   -0.025409   -0.201544
C      1.963802    0.097039   -1.253508
C      2.619041    1.399508   -1.466074
C      3.621722    1.780945   -0.564582
C      4.299835    2.984372   -0.751864
C      3.994428    3.794142   -1.845224
C      3.010430    3.401356   -2.756885
C      2.319245    2.194765   -2.576911
C      1.284160    1.840409   -3.501153
N      0.393768    1.632132   -4.214863
O      2.297776   -0.816746   -1.999685
H      1.811801   -5.512395   -1.525617
H      2.177920   -3.793753   -1.920938
H      0.672704   -4.546010   -2.478335
H      2.394243   -5.575548    0.893873
H      3.909490   -4.726533    2.658959
H      3.872228   -2.319495    3.268879
H      2.347924   -0.774352    2.130232
H      0.228719   -1.778670   -0.849444
H     -0.534186   -1.315121    2.053866
H     -2.007339   -3.045275    2.311821
H     -3.947925   -4.382794    1.611508
H     -5.032122   -3.952522   -0.576911
H     -4.186433   -2.204867   -2.056303
H     -3.378839   -0.362760   -3.078680
H     -2.128332   -1.646448   -3.331305
H     -1.702182    0.065109   -3.417995
H     -2.363216    5.452476    2.950184
H     -2.963510    6.151286    0.658651
H     -3.130458    4.470414   -1.163270
H     -2.681229    2.076951   -0.685230
H     -0.170134    1.610885   -0.572522
H      0.300389    3.531459    0.226926
H      3.881547    1.142436    0.278923
H      5.074732    3.284250   -0.049503
H      4.532169    4.729424   -1.992076
H      2.792423    4.043133   -3.609802
