78

C     -2.268433    0.084989    2.067390
C     -3.432598    0.541373    2.690243
C     -4.116706    1.664083    2.203697
C     -5.289696    2.132412    2.818918
C     -5.959359    3.248852    2.316541
C     -5.465557    3.909554    1.194910
C     -4.300337    3.456801    0.574868
C     -3.613936    2.335443    1.067890
C     -2.440297    1.866731    0.452822
C     -1.751436    0.743716    0.943398
C     -0.494266    0.271276    0.237495
C      0.767257    0.215791    1.142182
C      1.630399    1.454789    1.004497
C      1.773670    2.326487    2.096335
C      2.536187    3.503105    1.998172
C      2.674544    4.377603    3.087882
C      3.428724    5.547580    2.970904
C      4.052298    5.857154    1.764694
C      3.925020    4.998382    0.672620
C      3.171754    3.817046    0.774508
C      3.033840    2.944067   -0.313671
C      2.274580    1.775987   -0.199449
N      1.435211   -1.000622    0.684369
C      2.579332   -1.498415    1.269331
C      3.437441   -2.404308    0.464317
C      4.099330   -3.454123    1.108522
C      4.890843   -4.331202    0.370088
C      5.040934   -4.146181   -1.004227
C      4.395046   -3.090624   -1.658213
C      4.602529   -2.878795   -3.129796
C      3.595078   -2.213789   -0.913652
O      2.793502   -1.311206    2.465107
C      0.428856   -1.923528    0.193139
C     -0.221245   -2.853247    1.281872
O      0.252985   -2.727933    2.547848
O     -1.150012   -3.617980    1.042395
N     -0.661401   -1.091674   -0.297661
C     -0.846580   -1.172691   -1.673139
C     -2.155006   -1.718133   -2.137293
C     -2.331615   -1.951624   -3.509461
C     -3.540317   -2.466996   -3.999647
C     -3.718721   -2.697647   -5.471333
C     -4.579234   -2.734049   -3.101391
C     -4.416275   -2.493173   -1.737563
C     -3.208465   -1.986703   -1.254957
O      0.010324   -0.801553   -2.472223
H     -1.788674   -0.799907    2.475096
H     -3.808567    0.002860    3.558401
H     -5.692720    1.628190    3.694286
H     -6.866703    3.602117    2.799861
H     -5.988718    4.775397    0.798781
H     -3.932191    3.984926   -0.301862
H     -2.061614    2.391004   -0.424522
H     -0.310735    0.937864   -0.616829
H      0.506578    0.061357    2.196643
H      1.286470    2.089147    3.041398
H      2.196414    4.154187    4.039133
H      3.529266    6.216459    3.823562
H      4.638722    6.769048    1.674662
H      4.417960    5.260945   -0.261381
H      3.512452    3.169594   -1.265200
H      2.184334    1.123263   -1.067461
H      3.992010   -3.602423    2.178877
H      5.387992   -5.162017    0.862314
H      5.669116   -4.834767   -1.565195
H      4.599342   -3.836848   -3.659511
H      5.558475   -2.380027   -3.302867
H      3.803859   -2.266931   -3.560868
H      3.093717   -1.387982   -1.417754
H      0.846336   -2.578144   -0.579221
H      1.028911   -2.141755    2.677499
H     -1.514548   -1.745966   -4.197531
H     -4.633760   -3.265823   -5.674599
H     -2.878655   -3.275780   -5.871262
H     -3.781516   -1.740816   -5.997901
H     -5.528625   -3.129775   -3.457905
H     -5.227570   -2.705713   -1.045908
H     -3.105548   -1.818708   -0.186010
