92

C      4.086450   -3.710937    1.897181
C      4.766129   -3.517135    0.697767
C      4.221542   -2.683623   -0.266127
C      3.000423   -2.037947   -0.028706
C      2.280168   -2.204097    1.181452
C      2.859143   -3.072918    2.147011
C      2.207485   -3.314576    3.361478
C      0.979342   -2.734909    3.636083
C      0.396481   -1.880521    2.706930
C      1.029532   -1.576315    1.486516
C      0.337942   -0.627241    0.511405
C     -0.979713   -1.221034   -0.052333
C     -0.839331   -1.389825   -1.573396
C     -1.090787   -0.286717   -2.418228
C     -0.934874   -0.380611   -3.796986
C     -0.505893   -1.576003   -4.363761
C     -0.225031   -2.690023   -3.561497
C     -0.383571   -2.614699   -2.150744
C     -0.064513   -3.775470   -1.408396
C      0.383257   -4.947029   -2.023427
C      0.519902   -4.999048   -3.403352
C      0.217583   -3.877530   -4.165959
N     -2.025936   -0.270016    0.335760
C     -3.352684   -0.560604    0.081904
C     -4.322164    0.520616    0.097654
C     -5.614594    0.398705    0.577038
C     -6.363571   -0.706420    1.217339
O     -6.301607    1.558443    0.398027
C     -5.467205    2.447375   -0.217236
C     -6.037578    3.757773   -0.530209
C     -7.369706    4.068978   -0.214693
C     -7.913226    5.319919   -0.521087
C     -7.127808    6.283222   -1.149690
C     -5.807436    5.992679   -1.476607
C     -5.266261    4.740260   -1.166981
C     -4.238537    1.847762   -0.422850
O     -3.705589   -1.707970   -0.184384
C     -1.495281    0.852382    1.097422
C     -2.061878    0.923410    2.555494
O     -1.138619    0.903048    3.538287
O     -3.242996    0.980305    2.869411
N     -0.054916    0.667550    1.089642
C      0.748428    1.765527    1.329419
C      2.173185    1.580848    1.179953
C      3.048081    1.237511    2.189927
C      2.887301    0.959718    3.631486
O      4.313380    1.125467    1.697249
C      4.267810    1.421393    0.364771
C      5.536279    1.330348   -0.354354
C      6.690211    0.819164    0.260578
C      7.896100    0.722202   -0.440287
C      7.964711    1.140945   -1.766281
C      6.830525    1.652467   -2.392138
C      5.625884    1.740425   -1.691261
C      2.968896    1.736146    0.010012
O      0.278794    2.861465    1.623472
H      4.527018   -4.368511    2.643831
H      5.717758   -4.011417    0.519548
H      4.743746   -2.527383   -1.207599
H      2.637314   -1.402807   -0.831497
H      2.651849   -3.974152    4.104388
H      0.472021   -2.952998    4.571075
H     -0.573708   -1.461344    2.946621
H      1.014271   -0.373482   -0.305228
H     -1.263408   -2.174930    0.404566
H     -1.409179    0.668378   -2.008483
H     -1.139864    0.478730   -4.428697
H     -0.392874   -1.630232   -5.445064
H     -0.154989   -3.801523   -0.325198
H      0.624401   -5.816375   -1.419123
H      0.861642   -5.911361   -3.884598
H      0.336306   -3.934789   -5.246789
H     -5.688874   -1.350244    1.795821
H     -7.123434   -0.316973    1.903483
H     -6.867402   -1.317859    0.463317
H     -8.004997    3.331070    0.273257
H     -8.943598    5.538948   -0.261282
H     -7.547636    7.258011   -1.380877
H     -5.191329    6.738535   -1.971719
H     -4.228503    4.547138   -1.427868
H     -3.394002    2.298851   -0.924132
H     -1.735211    1.794819    0.599056
H     -1.662885    1.015614    4.359857
H      3.330355   -0.007662    3.878231
H      3.384645    1.731658    4.223766
H      1.834470    0.934750    3.921907
H      6.657157    0.479440    1.295511
H      8.779845    0.323273    0.049545
H      8.903308    1.066785   -2.308810
H      6.882866    1.978766   -3.427665
H      4.758376    2.140693   -2.204362
H      2.620890    2.015752   -0.974484
