60

C     -3.369793   -1.411855    0.342787
C     -4.594787   -1.963386   -0.043198
C     -4.650423   -3.254065   -0.561424
C     -3.481500   -4.000862   -0.681022
C     -2.258202   -3.449744   -0.292318
C     -2.172950   -2.133159    0.203009
C     -0.812209   -1.584875    0.641305
C      0.291823   -1.736487   -0.456792
C      1.570163   -2.363470    0.098581
C      2.187485   -1.896839    1.272122
C      3.352633   -2.498666    1.752911
C      3.922234   -3.567627    1.064616
C      3.333971   -4.030376   -0.110911
C      2.168187   -3.431470   -0.591453
N      0.540591   -0.375163   -0.937333
C      1.333811   -0.126763   -2.041308
C      1.710605    1.274577   -2.319671
C      1.315091    1.936001   -3.486039
Cl     0.316686    1.203858   -4.688109
C      1.718820    3.259370   -3.694406
C      2.527975    3.908248   -2.756874
C      2.947493    3.236259   -1.609682
C      2.547817    1.917538   -1.392727
O      1.796993   -1.002679   -2.763688
C     -0.296541    0.587498   -0.239933
C     -1.521628    1.084653   -1.061597
O     -1.708906    0.440852   -2.230943
O     -2.322217    1.937189   -0.702135
N     -0.790741   -0.139120    0.921979
C     -1.069481    0.361586    2.176262
C     -0.887983    1.803855    2.418352
C      0.421591    2.284016    2.580054
C      0.639753    3.639578    2.823515
C     -0.445915    4.509952    2.923707
C     -1.751224    4.024985    2.795253
C     -1.979076    2.667161    2.553792
Cl    -3.614341    2.130361    2.432736
O     -1.403215   -0.337799    3.127069
H     -3.379447   -0.413882    0.766885
H     -5.508411   -1.383712    0.073318
H     -5.604373   -3.683486   -0.855369
H     -3.520608   -5.017839   -1.069731
H     -1.366162   -4.072229   -0.374684
H     -0.561630   -2.128453    1.563618
H     -0.054031   -2.324382   -1.316633
H      1.767008   -1.065781    1.829906
H      3.814422   -2.134387    2.667456
H      4.827333   -4.037065    1.437896
H      3.784571   -4.852207   -0.660770
H      1.738995   -3.792503   -1.525374
H      1.411308    3.792153   -4.592170
H      2.842140    4.935716   -2.932587
H      3.597875    3.734896   -0.893761
H      2.903141    1.384168   -0.512169
H      0.290837    1.464046    0.034523
H     -2.548570    0.791715   -2.594118
H      1.268169    1.602653    2.528802
H      1.652674    4.018064    2.948201
H     -0.278202    5.567373    3.118736
H     -2.589629    4.712009    2.891538
