88

C     -0.535032   -4.065059   -0.759246
O     -0.466765   -4.358351    0.578750
C     -1.607721   -5.111493    0.996813
C     -0.429165   -5.094558   -1.699983
C     -0.470485   -4.798904   -3.062414
C     -0.609881   -3.477572   -3.478893
C     -0.691271   -2.447728   -2.538362
C     -0.652422   -2.723751   -1.159983
C     -0.715716   -1.613983   -0.123346
C      0.594618   -0.782791   -0.047946
C      1.459415   -1.235894    1.121710
C      1.091123   -0.924902    2.446260
C      1.874169   -1.338657    3.520838
C      3.028245   -2.080464    3.289490
C      3.395236   -2.416973    1.984496
C      2.617859   -2.004715    0.896854
O      2.905375   -2.287819   -0.411754
C      4.013156   -3.133433   -0.680970
N      0.126212    0.611034    0.053933
C      0.851872    1.766071    0.246407
C      2.314717    1.688931    0.403388
C      3.125761    1.279515   -0.657372
C      4.511651    1.231842   -0.483793
C      5.104969    1.597877    0.740065
C      6.563800    1.529136    0.927388
C      7.282108    2.621212    1.444659
C      8.664365    2.548195    1.637294
C      9.354727    1.383068    1.312069
C      8.663528    0.291435    0.793054
C      7.280473    0.365524    0.602050
C      4.265985    2.032104    1.782815
C      2.880884    2.092797    1.614803
O      0.328385    2.875691    0.288691
C     -1.270454    0.729214   -0.323044
C     -1.354923    1.394895   -1.722738
O     -2.173540    2.468235   -1.748231
O     -0.771600    1.047954   -2.742012
N     -1.782001   -0.635922   -0.372848
C     -3.100771   -0.982467   -0.125904
C     -4.128597    0.051841   -0.314625
C     -4.580787    0.345413   -1.601261
C     -5.542904    1.342564   -1.776008
C     -6.065259    2.045802   -0.675650
C     -7.046026    3.126951   -0.866081
C     -8.281480    3.114744   -0.198179
C     -9.201302    4.153845   -0.369509
C     -8.899176    5.221859   -1.212513
C     -7.680695    5.251986   -1.885350
C     -6.762277    4.212426   -1.711807
C     -5.617746    1.699546    0.611429
C     -4.659018    0.702606    0.798488
O     -3.471614   -2.092786    0.243478
H     -1.767814   -4.910039    2.062029
H     -1.412960   -6.185039    0.874745
H     -2.519329   -4.828406    0.457394
H     -0.307860   -6.125091   -1.375301
H     -0.396308   -5.595916   -3.795898
H     -0.645947   -3.241298   -4.538460
H     -0.800396   -1.428875   -2.894835
H     -0.952646   -2.037349    0.859704
H      1.145504   -0.823381   -0.994189
H      0.189874   -0.348377    2.645668
H      1.582852   -1.075710    4.535295
H      3.643485   -2.406184    4.124584
H      4.296361   -3.003098    1.851479
H      4.950784   -2.672491   -0.352021
H      4.076877   -3.264829   -1.765707
H      3.881730   -4.122574   -0.227431
H      2.688578    0.999868   -1.613271
H      5.132247    0.919413   -1.321204
H      6.765892    3.548363    1.691874
H      9.203656    3.404435    2.036280
H     10.429215    1.328533    1.460858
H      9.199787   -0.618241    0.535380
H      6.758553   -0.500482    0.202181
H      4.692121    2.311615    2.744185
H      2.248411    2.434037    2.431491
H     -1.799373    1.333689    0.421625
H     -2.051824    2.854737   -2.640944
H     -4.190443   -0.195563   -2.459394
H     -5.888982    1.571727   -2.782312
H     -8.540745    2.286245    0.458730
H    -10.147633    4.129608    0.163666
H     -9.611360    6.034208   -1.338385
H     -7.435493    6.083031   -2.542282
H     -5.810187    4.260920   -2.234844
H     -6.006915    2.224898    1.480506
H     -4.329720    0.441523    1.800313
