
  xtb     03162222223D
 xtb: 6.3.3 (4ae9cef)
 88 94  0     0  0            999 V2000
   -0.1429   -3.7367   -0.9292 C   0  0  0  0  0  0  0  0  0  0  0  0
    0.1240   -4.1316    0.3503 O   0  0  0  0  0  0  0  0  0  0  0  0
    0.5301   -5.4587    0.5725 C   0  0  0  0  0  0  0  0  0  0  0  0
    0.0246   -4.5363   -2.0524 C   0  0  0  0  0  0  0  0  0  0  0  0
   -0.2452   -4.0296   -3.3132 C   0  0  0  0  0  0  0  0  0  0  0  0
   -0.6696   -2.7246   -3.4700 C   0  0  0  0  0  0  0  0  0  0  0  0
   -0.8431   -1.9233   -2.3538 C   0  0  0  0  0  0  0  0  0  0  0  0
   -0.6013   -2.4215   -1.0861 C   0  0  0  0  0  0  0  0  0  0  0  0
   -0.7793   -1.5673    0.1430 C   0  0  0  0  0  0  0  0  0  0  0  0
    0.4660   -0.6916    0.3977 C   0  0  0  0  0  0  0  0  0  0  0  0
    1.0996   -0.9508    1.7397 C   0  0  0  0  0  0  0  0  0  0  0  0
    0.4532   -0.5985    2.9117 C   0  0  0  0  0  0  0  0  0  0  0  0
    1.0409   -0.8234    4.1447 C   0  0  0  0  0  0  0  0  0  0  0  0
    2.2898   -1.4117    4.2019 C   0  0  0  0  0  0  0  0  0  0  0  0
    2.9499   -1.7786    3.0412 C   0  0  0  0  0  0  0  0  0  0  0  0
    2.3639   -1.5553    1.8009 C   0  0  0  0  0  0  0  0  0  0  0  0
    2.9377   -1.8791    0.6098 O   0  0  0  0  0  0  0  0  0  0  0  0
    4.2043   -2.4907    0.6136 C   0  0  0  0  0  0  0  0  0  0  0  0
   -0.0280    0.6680    0.2713 N   0  0  0  0  0  0  0  0  0  0  0  0
    0.7171    1.7496   -0.0425 C   0  0  0  0  0  0  0  0  0  0  0  0
    2.1894    1.5298    0.0583 C   0  0  0  0  0  0  0  0  0  0  0  0
    2.9353    1.2883   -1.0877 C   0  0  0  0  0  0  0  0  0  0  0  0
    4.2941    1.0592   -0.9928 C   0  0  0  0  0  0  0  0  0  0  0  0
    4.9351    1.0768    0.2440 C   0  0  0  0  0  0  0  0  0  0  0  0
    6.3803    0.8219    0.3445 C   0  0  0  0  0  0  0  0  0  0  0  0
    7.1741    1.5645    1.2159 C   0  0  0  0  0  0  0  0  0  0  0  0
    8.5323    1.3241    1.3095 C   0  0  0  0  0  0  0  0  0  0  0  0
    9.1197    0.3337    0.5402 C   0  0  0  0  0  0  0  0  0  0  0  0
    8.3403   -0.4121   -0.3281 C   0  0  0  0  0  0  0  0  0  0  0  0
    6.9832   -0.1683   -0.4285 C   0  0  0  0  0  0  0  0  0  0  0  0
    4.1795    1.3395    1.3845 C   0  0  0  0  0  0  0  0  0  0  0  0
    2.8193    1.5613    1.2955 C   0  0  0  0  0  0  0  0  0  0  0  0
    0.1935    2.8040   -0.3549 O   0  0  0  0  0  0  0  0  0  0  0  0
   -1.4684    0.7486    0.1729 C   0  0  0  0  0  0  0  0  0  0  0  0
   -1.8477    1.6522   -1.0216 C   0  0  0  0  0  0  0  0  0  0  0  0
   -2.5911    2.6816   -0.6393 O   0  0  0  0  0  0  0  0  0  0  0  0
   -1.5658    1.3979   -2.1602 O   0  0  0  0  0  0  0  0  0  0  0  0
   -1.8782   -0.6214    0.0112 N   0  0  0  0  0  0  0  0  0  0  0  0
   -3.1363   -1.0635   -0.2481 C   0  0  0  0  0  0  0  0  0  0  0  0
   -4.1414    0.0261   -0.4424 C   0  0  0  0  0  0  0  0  0  0  0  0
   -4.5879    0.3099   -1.7272 C   0  0  0  0  0  0  0  0  0  0  0  0
   -5.5077    1.3194   -1.9334 C   0  0  0  0  0  0  0  0  0  0  0  0
   -6.0156    2.0493   -0.8609 C   0  0  0  0  0  0  0  0  0  0  0  0
   -6.9866    3.1308   -1.0839 C   0  0  0  0  0  0  0  0  0  0  0  0
   -8.0861    3.2837   -0.2426 C   0  0  0  0  0  0  0  0  0  0  0  0
   -8.9985    4.3003   -0.4549 C   0  0  0  0  0  0  0  0  0  0  0  0
   -8.8245    5.1843   -1.5065 C   0  0  0  0  0  0  0  0  0  0  0  0
   -7.7339    5.0429   -2.3481 C   0  0  0  0  0  0  0  0  0  0  0  0
   -6.8239    4.0230   -2.1412 C   0  0  0  0  0  0  0  0  0  0  0  0
   -5.5883    1.7331    0.4268 C   0  0  0  0  0  0  0  0  0  0  0  0
   -4.6579    0.7342    0.6352 C   0  0  0  0  0  0  0  0  0  0  0  0
   -3.4027   -2.2438   -0.3229 O   0  0  0  0  0  0  0  0  0  0  0  0
    0.6502   -5.5514    1.6512 H   0  0  0  0  0  0  0  0  0  0  0  0
    1.4863   -5.6740    0.0833 H   0  0  0  0  0  0  0  0  0  0  0  0
   -0.2238   -6.1744    0.2304 H   0  0  0  0  0  0  0  0  0  0  0  0
    0.3615   -5.5567   -1.9583 H   0  0  0  0  0  0  0  0  0  0  0  0
   -0.1156   -4.6667   -4.1758 H   0  0  0  0  0  0  0  0  0  0  0  0
   -0.8687   -2.3292   -4.4540 H   0  0  0  0  0  0  0  0  0  0  0  0
   -1.1719   -0.9010   -2.4701 H   0  0  0  0  0  0  0  0  0  0  0  0
   -0.9741   -2.2282    0.9959 H   0  0  0  0  0  0  0  0  0  0  0  0
    1.2159   -0.8781   -0.3778 H   0  0  0  0  0  0  0  0  0  0  0  0
   -0.5207   -0.1358    2.8543 H   0  0  0  0  0  0  0  0  0  0  0  0
    0.5280   -0.5404    5.0509 H   0  0  0  0  0  0  0  0  0  0  0  0
    2.7618   -1.5910    5.1564 H   0  0  0  0  0  0  0  0  0  0  0  0
    3.9245   -2.2343    3.1144 H   0  0  0  0  0  0  0  0  0  0  0  0
    4.9660   -1.8391    1.0533 H   0  0  0  0  0  0  0  0  0  0  0  0
    4.4434   -2.6678   -0.4337 H   0  0  0  0  0  0  0  0  0  0  0  0
    4.1868   -3.4473    1.1452 H   0  0  0  0  0  0  0  0  0  0  0  0
    2.4445    1.2773   -2.0496 H   0  0  0  0  0  0  0  0  0  0  0  0
    4.8697    0.8824   -1.8893 H   0  0  0  0  0  0  0  0  0  0  0  0
    6.7252    2.3509    1.8049 H   0  0  0  0  0  0  0  0  0  0  0  0
    9.1363    1.9137    1.9836 H   0  0  0  0  0  0  0  0  0  0  0  0
   10.1803    0.1454    0.6153 H   0  0  0  0  0  0  0  0  0  0  0  0
    8.7923   -1.1868   -0.9303 H   0  0  0  0  0  0  0  0  0  0  0  0
    6.3795   -0.7609   -1.1002 H   0  0  0  0  0  0  0  0  0  0  0  0
    4.6562    1.3436    2.3540 H   0  0  0  0  0  0  0  0  0  0  0  0
    2.2436    1.7569    2.1878 H   0  0  0  0  0  0  0  0  0  0  0  0
   -1.9002    1.2087    1.0792 H   0  0  0  0  0  0  0  0  0  0  0  0
   -2.7592    3.2758   -1.3873 H   0  0  0  0  0  0  0  0  0  0  0  0
   -4.2013   -0.2581   -2.5601 H   0  0  0  0  0  0  0  0  0  0  0  0
   -5.8526    1.5321   -2.9346 H   0  0  0  0  0  0  0  0  0  0  0  0
   -8.2360    2.5862    0.5685 H   0  0  0  0  0  0  0  0  0  0  0  0
   -9.8505    4.4027    0.2015 H   0  0  0  0  0  0  0  0  0  0  0  0
   -9.5364    5.9797   -1.6703 H   0  0  0  0  0  0  0  0  0  0  0  0
   -7.5920    5.7311   -3.1687 H   0  0  0  0  0  0  0  0  0  0  0  0
   -5.9682    3.9258   -2.7937 H   0  0  0  0  0  0  0  0  0  0  0  0
   -5.9710    2.2925    1.2674 H   0  0  0  0  0  0  0  0  0  0  0  0
   -4.3349    0.4972    1.6389 H   0  0  0  0  0  0  0  0  0  0  0  0
  1  2  1  0  0  0  0
  2  3  1  0  0  0  0
  1  4  4  0  0  0  0
  4  5  4  0  0  0  0
  5  6  4  0  0  0  0
  6  7  4  0  0  0  0
  1  8  4  0  0  0  0
  7  8  4  0  0  0  0
  8  9  1  0  0  0  0
  9 10  1  0  0  0  0
 10 11  1  0  0  0  0
 11 12  4  0  0  0  0
 12 13  4  0  0  0  0
 13 14  4  0  0  0  0
 14 15  4  0  0  0  0
 11 16  4  0  0  0  0
 15 16  4  0  0  0  0
 16 17  1  0  0  0  0
 17 18  1  0  0  0  0
 10 19  1  0  0  0  0
 19 20  4  0  0  0  0
 20 21  1  0  0  0  0
 21 22  4  0  0  0  0
 22 23  4  0  0  0  0
 23 24  4  0  0  0  0
 24 25  1  0  0  0  0
 25 26  4  0  0  0  0
 26 27  4  0  0  0  0
 27 28  4  0  0  0  0
 28 29  4  0  0  0  0
 25 30  4  0  0  0  0
 29 30  4  0  0  0  0
 24 31  4  0  0  0  0
 21 32  4  0  0  0  0
 31 32  4  0  0  0  0
 20 33  2  0  0  0  0
 19 34  1  0  0  0  0
 34 35  1  0  0  0  0
 35 36  1  0  0  0  0
 35 37  2  0  0  0  0
  9 38  1  0  0  0  0
 34 38  1  0  0  0  0
 38 39  4  0  0  0  0
 39 40  1  0  0  0  0
 40 41  4  0  0  0  0
 41 42  4  0  0  0  0
 42 43  4  0  0  0  0
 43 44  1  0  0  0  0
 44 45  4  0  0  0  0
 45 46  4  0  0  0  0
 46 47  4  0  0  0  0
 47 48  4  0  0  0  0
 44 49  4  0  0  0  0
 48 49  4  0  0  0  0
 43 50  4  0  0  0  0
 40 51  4  0  0  0  0
 50 51  4  0  0  0  0
 39 52  2  0  0  0  0
  3 53  1  0  0  0  0
  3 54  1  0  0  0  0
  3 55  1  0  0  0  0
  4 56  1  0  0  0  0
  5 57  1  0  0  0  0
  6 58  1  0  0  0  0
  7 59  1  0  0  0  0
  9 60  1  0  0  0  0
 10 61  1  0  0  0  0
 12 62  1  0  0  0  0
 13 63  1  0  0  0  0
 14 64  1  0  0  0  0
 15 65  1  0  0  0  0
 18 66  1  0  0  0  0
 18 67  1  0  0  0  0
 18 68  1  0  0  0  0
 22 69  1  0  0  0  0
 23 70  1  0  0  0  0
 26 71  1  0  0  0  0
 27 72  1  0  0  0  0
 28 73  1  0  0  0  0
 29 74  1  0  0  0  0
 30 75  1  0  0  0  0
 31 76  1  0  0  0  0
 32 77  1  0  0  0  0
 34 78  1  0  0  0  0
 36 79  1  0  0  0  0
 41 80  1  0  0  0  0
 42 81  1  0  0  0  0
 45 82  1  0  0  0  0
 46 83  1  0  0  0  0
 47 84  1  0  0  0  0
 48 85  1  0  0  0  0
 49 86  1  0  0  0  0
 50 87  1  0  0  0  0
 51 88  1  0  0  0  0
M  END
