66

C      3.253624   -1.700448    1.004911
C      4.335279   -2.261844    1.690671
C      4.383564   -3.635719    1.921297
C      3.349034   -4.451808    1.469280
C      2.262833   -3.891360    0.795746
C      2.192210   -2.502757    0.559726
C      0.975915   -1.961222   -0.177433
C     -0.303669   -1.957091    0.717544
C     -1.332981   -2.955049    0.204905
C     -1.697807   -4.049409    1.004032
C     -2.615911   -4.993912    0.542834
C     -3.183004   -4.855875   -0.723215
C     -2.840128   -3.768368   -1.524699
C     -1.922465   -2.822121   -1.064098
N     -0.790942   -0.577645    0.667904
C     -1.888384   -0.165930    1.403449
C     -2.381911    1.217401    1.207074
C     -2.745445    1.664877   -0.067980
C     -3.200764    2.971457   -0.233753
C     -3.319278    3.817655    0.872344
C     -2.994023    3.362444    2.157876
C     -3.174657    4.250716    3.355962
C     -2.538638    2.047504    2.319877
O     -2.471613   -0.876772    2.215576
C      0.217838    0.303953    0.104978
C      1.087394    1.047170    1.168606
O      0.709449    0.857041    2.448865
O      2.065343    1.745542    0.939037
N      1.086011   -0.580613   -0.657601
C      1.680095   -0.301312   -1.870406
C      1.474127    1.034328   -2.452081
C      2.362163    2.071835   -2.163899
C      2.140444    3.342207   -2.706400
C      3.097636    4.461665   -2.425300
C      1.047308    3.538903   -3.563787
C      0.175450    2.488335   -3.864712
C      0.390637    1.229525   -3.312019
O      2.307536   -1.119444   -2.534898
H      3.275308   -0.633113    0.804567
H      5.153129   -1.627931    2.025849
H      5.233512   -4.071316    2.439936
H      3.391390   -5.526397    1.630734
H      1.471688   -4.552520    0.440701
H      0.850069   -2.595988   -1.066643
H     -0.064450   -2.170299    1.767634
H     -1.276742   -4.164847    2.001908
H     -2.892951   -5.832893    1.174977
H     -3.896856   -5.594295   -1.080110
H     -3.287730   -3.657537   -2.508860
H     -1.665628   -1.979564   -1.702768
H     -2.679077    1.004723   -0.928308
H     -3.466084    3.336474   -1.221883
H     -3.687164    4.830800    0.726795
H     -2.270006    4.248711    3.973671
H     -3.371179    5.286379    3.055403
H     -4.020443    3.898193    3.953516
H     -2.297773    1.664684    3.309942
H     -0.245670    1.065477   -0.521356
H      1.370821    1.347246    2.980012
H      3.223764    1.880820   -1.524272
H      3.578354    4.329007   -1.449428
H      3.872686    4.496686   -3.197110
H      2.576361    5.425740   -2.401722
H      0.872129    4.512930   -4.014974
H     -0.656487    2.644727   -4.545051
H     -0.283242    0.410244   -3.553370
