
  xtb     03162223503D
 xtb: 6.3.3 (4ae9cef)
 60 64  0     0  0            999 V2000
   -2.9618   -1.1595   -0.8560 C   0  0  0  0  0  0  0  0  0  0  0  0
   -4.2109   -1.5871   -1.2679 C   0  0  0  0  0  0  0  0  0  0  0  0
   -4.7082   -2.8051   -0.8363 C   0  0  0  0  0  0  0  0  0  0  0  0
   -3.9523   -3.5973    0.0106 C   0  0  0  0  0  0  0  0  0  0  0  0
   -2.7064   -3.1688    0.4323 C   0  0  0  0  0  0  0  0  0  0  0  0
   -2.2077   -1.9471    0.0046 C   0  0  0  0  0  0  0  0  0  0  0  0
   -0.8403   -1.4974    0.4481 C   0  0  0  0  0  0  0  0  0  0  0  0
    0.2010   -1.5998   -0.6820 C   0  0  0  0  0  0  0  0  0  0  0  0
    1.1050   -2.7894   -0.4992 C   0  0  0  0  0  0  0  0  0  0  0  0
    2.0708   -2.7901    0.4990 C   0  0  0  0  0  0  0  0  0  0  0  0
    2.8789   -3.8955    0.6893 C   0  0  0  0  0  0  0  0  0  0  0  0
    2.7200   -5.0154   -0.1091 C   0  0  0  0  0  0  0  0  0  0  0  0
    1.7525   -5.0232   -1.0989 C   0  0  0  0  0  0  0  0  0  0  0  0
    0.9486   -3.9143   -1.2948 C   0  0  0  0  0  0  0  0  0  0  0  0
    0.9333   -0.3399   -0.6045 N   0  0  0  0  0  0  0  0  0  0  0  0
    1.9689   -0.0958   -1.4546 C   0  0  0  0  0  0  0  0  0  0  0  0
    2.5499    1.2842   -1.3308 C   0  0  0  0  0  0  0  0  0  0  0  0
    2.4210    2.1956   -2.3730 C   0  0  0  0  0  0  0  0  0  0  0  0
    1.7300    1.8501   -3.4665 F   0  0  0  0  0  0  0  0  0  0  0  0
    2.9656    3.4660   -2.2997 C   0  0  0  0  0  0  0  0  0  0  0  0
    3.6715    3.8310   -1.1677 C   0  0  0  0  0  0  0  0  0  0  0  0
    3.8329    2.9310   -0.1259 C   0  0  0  0  0  0  0  0  0  0  0  0
    3.2770    1.6660   -0.2084 C   0  0  0  0  0  0  0  0  0  0  0  0
    2.4042   -0.9297   -2.2105 O   0  0  0  0  0  0  0  0  0  0  0  0
    0.2568    0.6472    0.2000 C   0  0  0  0  0  0  0  0  0  0  0  0
   -0.2951    1.7969   -0.6916 C   0  0  0  0  0  0  0  0  0  0  0  0
    0.1457    3.0296   -0.4001 O   0  0  0  0  0  0  0  0  0  0  0  0
   -1.0525    1.5937   -1.5875 O   0  0  0  0  0  0  0  0  0  0  0  0
   -0.8154   -0.0876    0.8219 N   0  0  0  0  0  0  0  0  0  0  0  0
   -1.6840    0.4061    1.7424 C   0  0  0  0  0  0  0  0  0  0  0  0
   -1.5847    1.8954    1.9271 C   0  0  0  0  0  0  0  0  0  0  0  0
   -0.6319    2.4701    2.7599 C   0  0  0  0  0  0  0  0  0  0  0  0
   -0.5802    3.8442    2.9247 C   0  0  0  0  0  0  0  0  0  0  0  0
   -1.4851    4.6592    2.2632 C   0  0  0  0  0  0  0  0  0  0  0  0
   -2.4515    4.1057    1.4430 C   0  0  0  0  0  0  0  0  0  0  0  0
   -2.4941    2.7313    1.2888 C   0  0  0  0  0  0  0  0  0  0  0  0
   -3.4254    2.1948    0.4881 F   0  0  0  0  0  0  0  0  0  0  0  0
   -2.4628   -0.2877    2.3508 O   0  0  0  0  0  0  0  0  0  0  0  0
   -2.5805   -0.2090   -1.1991 H   0  0  0  0  0  0  0  0  0  0  0  0
   -4.7963   -0.9642   -1.9273 H   0  0  0  0  0  0  0  0  0  0  0  0
   -5.6850   -3.1356   -1.1574 H   0  0  0  0  0  0  0  0  0  0  0  0
   -4.3360   -4.5478    0.3509 H   0  0  0  0  0  0  0  0  0  0  0  0
   -2.1191   -3.7826    1.1001 H   0  0  0  0  0  0  0  0  0  0  0  0
   -0.5245   -2.0962    1.3138 H   0  0  0  0  0  0  0  0  0  0  0  0
   -0.2996   -1.6623   -1.6568 H   0  0  0  0  0  0  0  0  0  0  0  0
    2.1957   -1.9172    1.1252 H   0  0  0  0  0  0  0  0  0  0  0  0
    3.6332   -3.8840    1.4624 H   0  0  0  0  0  0  0  0  0  0  0  0
    3.3511   -5.8789    0.0396 H   0  0  0  0  0  0  0  0  0  0  0  0
    1.6264   -5.8940   -1.7247 H   0  0  0  0  0  0  0  0  0  0  0  0
    0.1980   -3.9178   -2.0709 H   0  0  0  0  0  0  0  0  0  0  0  0
    2.8325    4.1444   -3.1268 H   0  0  0  0  0  0  0  0  0  0  0  0
    4.1040    4.8172   -1.1018 H   0  0  0  0  0  0  0  0  0  0  0  0
    4.3997    3.2117    0.7487 H   0  0  0  0  0  0  0  0  0  0  0  0
    3.4230    0.9545    0.5918 H   0  0  0  0  0  0  0  0  0  0  0  0
    0.9414    1.0660    0.9632 H   0  0  0  0  0  0  0  0  0  0  0  0
    0.7413    3.0718    0.3606 H   0  0  0  0  0  0  0  0  0  0  0  0
    0.0602    1.8312    3.2902 H   0  0  0  0  0  0  0  0  0  0  0  0
    0.1644    4.2783    3.5746 H   0  0  0  0  0  0  0  0  0  0  0  0
   -1.4422    5.7295    2.3915 H   0  0  0  0  0  0  0  0  0  0  0  0
   -3.1712    4.7171    0.9234 H   0  0  0  0  0  0  0  0  0  0  0  0
  1  2  4  0  0  0  0
  2  3  4  0  0  0  0
  3  4  4  0  0  0  0
  4  5  4  0  0  0  0
  1  6  4  0  0  0  0
  5  6  4  0  0  0  0
  6  7  1  0  0  0  0
  7  8  1  0  0  0  0
  8  9  1  0  0  0  0
  9 10  4  0  0  0  0
 10 11  4  0  0  0  0
 11 12  4  0  0  0  0
 12 13  4  0  0  0  0
  9 14  4  0  0  0  0
 13 14  4  0  0  0  0
  8 15  1  0  0  0  0
 15 16  1  0  0  0  0
 16 17  1  0  0  0  0
 17 18  4  0  0  0  0
 18 19  1  0  0  0  0
 18 20  4  0  0  0  0
 20 21  4  0  0  0  0
 21 22  4  0  0  0  0
 17 23  4  0  0  0  0
 22 23  4  0  0  0  0
 16 24  2  0  0  0  0
 15 25  1  0  0  0  0
 25 26  1  0  0  0  0
 26 27  1  0  0  0  0
 26 28  2  0  0  0  0
  7 29  1  0  0  0  0
 25 29  1  0  0  0  0
 29 30  4  0  0  0  0
 30 31  1  0  0  0  0
 31 32  4  0  0  0  0
 32 33  4  0  0  0  0
 33 34  4  0  0  0  0
 34 35  4  0  0  0  0
 31 36  4  0  0  0  0
 35 36  4  0  0  0  0
 36 37  1  0  0  0  0
 30 38  2  0  0  0  0
  1 39  1  0  0  0  0
  2 40  1  0  0  0  0
  3 41  1  0  0  0  0
  4 42  1  0  0  0  0
  5 43  1  0  0  0  0
  7 44  1  0  0  0  0
  8 45  1  0  0  0  0
 10 46  1  0  0  0  0
 11 47  1  0  0  0  0
 12 48  1  0  0  0  0
 13 49  1  0  0  0  0
 14 50  1  0  0  0  0
 20 51  1  0  0  0  0
 21 52  1  0  0  0  0
 22 53  1  0  0  0  0
 23 54  1  0  0  0  0
 25 55  1  0  0  0  0
 27 56  1  0  0  0  0
 32 57  1  0  0  0  0
 33 58  1  0  0  0  0
 34 59  1  0  0  0  0
 35 60  1  0  0  0  0
M  END
