74

C     -1.658103   -3.960701    0.985160
O     -0.719743   -4.122396    1.970698
C     -1.334608   -4.081096    3.260659
C     -2.536794   -5.011506    0.703325
C     -3.487091   -4.873315   -0.304586
C     -3.552096   -3.690645   -1.034542
C     -2.656676   -2.651418   -0.767699
C     -1.682386   -2.771934    0.240355
C     -0.682775   -1.658209    0.511978
C      0.392814   -1.516154   -0.602993
C      1.609031   -2.423318   -0.670080
C      2.070870   -3.125632    0.455355
C      3.182586   -3.965010    0.377787
C      3.857193   -4.114584   -0.827007
C      3.429501   -3.414797   -1.954584
C      2.321369   -2.560982   -1.883162
O      1.845526   -1.837981   -2.949989
C      2.708763   -1.697233   -4.070292
N      0.683759   -0.067959   -0.614064
C      1.690493    0.430074    0.216027
C      2.247455    1.757861   -0.168328
C      2.264645    2.181615   -1.501439
C      2.774777    3.440434   -1.826080
C      3.275168    4.284345   -0.826729
C      3.798663    5.643990   -1.186091
C      3.265558    3.849352    0.504236
C      2.763213    2.588159    0.831773
O      2.086932   -0.125333    1.234034
C     -0.600678    0.586477   -0.373960
C     -1.397959    0.828832   -1.691137
O     -0.634453    0.871212   -2.806936
O     -2.599512    1.032527   -1.795610
N     -1.314843   -0.320575    0.526824
C     -2.055870    0.071930    1.627469
C     -2.439575    1.489327    1.739938
C     -1.723666    2.315023    2.609748
C     -2.069686    3.662531    2.718175
C     -3.138676    4.181207    1.974669
C     -3.510029    5.631973    2.073702
C     -3.854946    3.335129    1.115340
C     -3.513037    1.986824    1.003494
O     -2.378545   -0.673119    2.546537
H     -0.544687   -3.927968    4.001640
H     -1.824810   -5.034692    3.483966
H     -2.048318   -3.255551    3.350751
H     -2.477571   -5.939024    1.264804
H     -4.175231   -5.686162   -0.518839
H     -4.296878   -3.577185   -1.818366
H     -2.733801   -1.742482   -1.358716
H     -0.221138   -1.772684    1.498579
H     -0.137033   -1.690003   -1.551991
H      1.586904   -3.015538    1.422167
H      3.519864   -4.495869    1.263886
H      4.719570   -4.772669   -0.888468
H      3.978717   -3.561979   -2.877822
H      2.787244   -2.640296   -4.621341
H      3.696104   -1.326419   -3.774591
H      2.263921   -0.956720   -4.742482
H      1.902057    1.531901   -2.293995
H      2.781391    3.760723   -2.865962
H      2.971132    6.299923   -1.473983
H      4.506847    5.572220   -2.017949
H      4.326310    6.105764   -0.344760
H      3.651690    4.487509    1.295838
H      2.770735    2.256398    1.867951
H     -0.455722    1.568603    0.086635
H     -1.274683    1.024900   -3.532411
H     -0.903997    1.911353    3.199544
H     -1.505229    4.304176    3.392041
H     -4.587591    5.738656    2.234722
H     -3.228769    6.155059    1.153968
H     -3.003320    6.117565    2.914082
H     -4.687108    3.722493    0.531098
H     -4.083172    1.333073    0.348031
