
  xtb     03172201093D
 xtb: 6.3.3 (4ae9cef)
 74 78  0     0  0            999 V2000
   -1.6450   -3.7168    1.4522 C   0  0  0  0  0  0  0  0  0  0  0  0
   -0.6188   -3.7249    2.3504 O   0  0  0  0  0  0  0  0  0  0  0  0
   -0.6648   -4.6347    3.4226 C   0  0  0  0  0  0  0  0  0  0  0  0
   -2.6705   -4.6546    1.4417 C   0  0  0  0  0  0  0  0  0  0  0  0
   -3.6784   -4.5800    0.4962 C   0  0  0  0  0  0  0  0  0  0  0  0
   -3.6810   -3.5672   -0.4429 C   0  0  0  0  0  0  0  0  0  0  0  0
   -2.6621   -2.6306   -0.4373 C   0  0  0  0  0  0  0  0  0  0  0  0
   -1.6356   -2.6956    0.4903 C   0  0  0  0  0  0  0  0  0  0  0  0
   -0.5486   -1.6571    0.5014 C   0  0  0  0  0  0  0  0  0  0  0  0
    0.3793   -1.6711   -0.7344 C   0  0  0  0  0  0  0  0  0  0  0  0
    1.5031   -2.6634   -0.7968 C   0  0  0  0  0  0  0  0  0  0  0  0
    1.8226   -3.5385    0.2227 C   0  0  0  0  0  0  0  0  0  0  0  0
    2.8661   -4.4403    0.0780 C   0  0  0  0  0  0  0  0  0  0  0  0
    3.5979   -4.4627   -1.0911 C   0  0  0  0  0  0  0  0  0  0  0  0
    3.2891   -3.5966   -2.1279 C   0  0  0  0  0  0  0  0  0  0  0  0
    2.2405   -2.7005   -1.9934 C   0  0  0  0  0  0  0  0  0  0  0  0
    1.8434   -1.8217   -2.9600 O   0  0  0  0  0  0  0  0  0  0  0  0
    2.6541   -1.6707   -4.0986 C   0  0  0  0  0  0  0  0  0  0  0  0
    0.8075   -0.2665   -0.8071 N   0  0  0  0  0  0  0  0  0  0  0  0
    2.0306    0.1965   -0.4023 C   0  0  0  0  0  0  0  0  0  0  0  0
    2.0828    1.6805   -0.2064 C   0  0  0  0  0  0  0  0  0  0  0  0
    1.7839    2.5739   -1.2305 C   0  0  0  0  0  0  0  0  0  0  0  0
    1.8202    3.9339   -0.9928 C   0  0  0  0  0  0  0  0  0  0  0  0
    2.1490    4.4332    0.2636 C   0  0  0  0  0  0  0  0  0  0  0  0
    2.1573    5.9114    0.5053 C   0  0  0  0  0  0  0  0  0  0  0  0
    2.4722    3.5352    1.2717 C   0  0  0  0  0  0  0  0  0  0  0  0
    2.4496    2.1717    1.0400 C   0  0  0  0  0  0  0  0  0  0  0  0
    2.9973   -0.5101   -0.2272 O   0  0  0  0  0  0  0  0  0  0  0  0
   -0.4125    0.4645   -0.5903 C   0  0  0  0  0  0  0  0  0  0  0  0
   -1.2407    0.5482   -1.8823 C   0  0  0  0  0  0  0  0  0  0  0  0
   -0.5015    0.9674   -2.9055 O   0  0  0  0  0  0  0  0  0  0  0  0
   -2.4101    0.3006   -1.9700 O   0  0  0  0  0  0  0  0  0  0  0  0
   -1.0906   -0.2945    0.4386 N   0  0  0  0  0  0  0  0  0  0  0  0
   -1.8049    0.2458    1.4610 C   0  0  0  0  0  0  0  0  0  0  0  0
   -2.0216    1.7215    1.3037 C   0  0  0  0  0  0  0  0  0  0  0  0
   -1.1320    2.6047    1.9032 C   0  0  0  0  0  0  0  0  0  0  0  0
   -1.2855    3.9689    1.7339 C   0  0  0  0  0  0  0  0  0  0  0  0
   -2.3309    4.4759    0.9745 C   0  0  0  0  0  0  0  0  0  0  0  0
   -2.5075    5.9522    0.7853 C   0  0  0  0  0  0  0  0  0  0  0  0
   -3.2252    3.5839    0.3915 C   0  0  0  0  0  0  0  0  0  0  0  0
   -3.0749    2.2187    0.5478 C   0  0  0  0  0  0  0  0  0  0  0  0
   -2.1996   -0.4067    2.4009 O   0  0  0  0  0  0  0  0  0  0  0  0
    0.1995   -4.4002    4.0427 H   0  0  0  0  0  0  0  0  0  0  0  0
   -0.5880   -5.6704    3.0753 H   0  0  0  0  0  0  0  0  0  0  0  0
   -1.5771   -4.5101    4.0128 H   0  0  0  0  0  0  0  0  0  0  0  0
   -2.6977   -5.4464    2.1734 H   0  0  0  0  0  0  0  0  0  0  0  0
   -4.4692   -5.3156    0.5074 H   0  0  0  0  0  0  0  0  0  0  0  0
   -4.4745   -3.4980   -1.1709 H   0  0  0  0  0  0  0  0  0  0  0  0
   -2.6818   -1.8198   -1.1487 H   0  0  0  0  0  0  0  0  0  0  0  0
    0.0300   -1.7537    1.4267 H   0  0  0  0  0  0  0  0  0  0  0  0
   -0.2484   -1.8349   -1.6245 H   0  0  0  0  0  0  0  0  0  0  0  0
    1.2595   -3.5236    1.1402 H   0  0  0  0  0  0  0  0  0  0  0  0
    3.1075   -5.1156    0.8846 H   0  0  0  0  0  0  0  0  0  0  0  0
    4.4188   -5.1549   -1.2081 H   0  0  0  0  0  0  0  0  0  0  0  0
    3.8748   -3.6295   -3.0331 H   0  0  0  0  0  0  0  0  0  0  0  0
    2.6657   -2.5785   -4.7117 H   0  0  0  0  0  0  0  0  0  0  0  0
    3.6783   -1.4013   -3.8244 H   0  0  0  0  0  0  0  0  0  0  0  0
    2.2090   -0.8575   -4.6709 H   0  0  0  0  0  0  0  0  0  0  0  0
    1.5218    2.1952   -2.2067 H   0  0  0  0  0  0  0  0  0  0  0  0
    1.5847    4.6231   -1.7912 H   0  0  0  0  0  0  0  0  0  0  0  0
    1.1998    6.3464    0.2222 H   0  0  0  0  0  0  0  0  0  0  0  0
    2.9292    6.3880   -0.0983 H   0  0  0  0  0  0  0  0  0  0  0  0
    2.3507    6.1359    1.5511 H   0  0  0  0  0  0  0  0  0  0  0  0
    2.7438    3.9045    2.2502 H   0  0  0  0  0  0  0  0  0  0  0  0
    2.7053    1.4776    1.8269 H   0  0  0  0  0  0  0  0  0  0  0  0
   -0.2231    1.4971   -0.2714 H   0  0  0  0  0  0  0  0  0  0  0  0
   -1.0325    1.0080   -3.7185 H   0  0  0  0  0  0  0  0  0  0  0  0
   -0.3150    2.2217    2.4975 H   0  0  0  0  0  0  0  0  0  0  0  0
   -0.5822    4.6444    2.1987 H   0  0  0  0  0  0  0  0  0  0  0  0
   -3.4541    6.2765    1.2157 H   0  0  0  0  0  0  0  0  0  0  0  0
   -2.5231    6.2020   -0.2748 H   0  0  0  0  0  0  0  0  0  0  0  0
   -1.7035    6.5055    1.2641 H   0  0  0  0  0  0  0  0  0  0  0  0
   -4.0470    3.9668   -0.1966 H   0  0  0  0  0  0  0  0  0  0  0  0
   -3.7655    1.5336    0.0808 H   0  0  0  0  0  0  0  0  0  0  0  0
  1  2  1  0  0  0  0
  2  3  1  0  0  0  0
  1  4  4  0  0  0  0
  4  5  4  0  0  0  0
  5  6  4  0  0  0  0
  6  7  4  0  0  0  0
  1  8  4  0  0  0  0
  7  8  4  0  0  0  0
  8  9  1  0  0  0  0
  9 10  1  0  0  0  0
 10 11  1  0  0  0  0
 11 12  4  0  0  0  0
 12 13  4  0  0  0  0
 13 14  4  0  0  0  0
 14 15  4  0  0  0  0
 11 16  4  0  0  0  0
 15 16  4  0  0  0  0
 16 17  1  0  0  0  0
 17 18  1  0  0  0  0
 10 19  1  0  0  0  0
 19 20  1  0  0  0  0
 20 21  1  0  0  0  0
 21 22  4  0  0  0  0
 22 23  4  0  0  0  0
 23 24  4  0  0  0  0
 24 25  1  0  0  0  0
 24 26  4  0  0  0  0
 21 27  4  0  0  0  0
 26 27  4  0  0  0  0
 20 28  2  0  0  0  0
 19 29  1  0  0  0  0
 29 30  1  0  0  0  0
 30 31  1  0  0  0  0
 30 32  2  0  0  0  0
  9 33  1  0  0  0  0
 29 33  1  0  0  0  0
 33 34  4  0  0  0  0
 34 35  1  0  0  0  0
 35 36  4  0  0  0  0
 36 37  4  0  0  0  0
 37 38  4  0  0  0  0
 38 39  1  0  0  0  0
 38 40  4  0  0  0  0
 35 41  4  0  0  0  0
 40 41  4  0  0  0  0
 34 42  2  0  0  0  0
  3 43  1  0  0  0  0
  3 44  1  0  0  0  0
  3 45  1  0  0  0  0
  4 46  1  0  0  0  0
  5 47  1  0  0  0  0
  6 48  1  0  0  0  0
  7 49  1  0  0  0  0
  9 50  1  0  0  0  0
 10 51  1  0  0  0  0
 12 52  1  0  0  0  0
 13 53  1  0  0  0  0
 14 54  1  0  0  0  0
 15 55  1  0  0  0  0
 18 56  1  0  0  0  0
 18 57  1  0  0  0  0
 18 58  1  0  0  0  0
 22 59  1  0  0  0  0
 23 60  1  0  0  0  0
 25 61  1  0  0  0  0
 25 62  1  0  0  0  0
 25 63  1  0  0  0  0
 26 64  1  0  0  0  0
 27 65  1  0  0  0  0
 29 66  1  0  0  0  0
 31 67  1  0  0  0  0
 36 68  1  0  0  0  0
 37 69  1  0  0  0  0
 39 70  1  0  0  0  0
 39 71  1  0  0  0  0
 39 72  1  0  0  0  0
 40 73  1  0  0  0  0
 41 74  1  0  0  0  0
M  END
