
  xtb     03162221543D
 xtb: 6.3.3 (4ae9cef)
 68 72  0     0  0            999 V2000
    2.0858   -2.5321    0.5388 C   0  0  0  0  0  0  0  0  0  0  0  0
    1.5954   -2.8102   -0.7007 O   0  0  0  0  0  0  0  0  0  0  0  0
    1.9339   -4.0336   -1.3094 C   0  0  0  0  0  0  0  0  0  0  0  0
    2.9332   -3.3595    1.2636 C   0  0  0  0  0  0  0  0  0  0  0  0
    3.3772   -2.9707    2.5175 C   0  0  0  0  0  0  0  0  0  0  0  0
    2.9907   -1.7583    3.0543 C   0  0  0  0  0  0  0  0  0  0  0  0
    2.1464   -0.9288    2.3329 C   0  0  0  0  0  0  0  0  0  0  0  0
    1.6860   -1.3008    1.0840 C   0  0  0  0  0  0  0  0  0  0  0  0
    0.7548   -0.4544    0.2547 C   0  0  0  0  0  0  0  0  0  0  0  0
   -0.7052   -0.9739    0.3373 C   0  0  0  0  0  0  0  0  0  0  0  0
   -1.2468   -1.3731   -1.0102 C   0  0  0  0  0  0  0  0  0  0  0  0
   -1.5751   -2.6896   -1.2746 C   0  0  0  0  0  0  0  0  0  0  0  0
   -2.0621   -3.0676   -2.5140 C   0  0  0  0  0  0  0  0  0  0  0  0
   -2.2335   -2.1125   -3.4970 C   0  0  0  0  0  0  0  0  0  0  0  0
   -1.9175   -0.7867   -3.2513 C   0  0  0  0  0  0  0  0  0  0  0  0
   -1.4175   -0.4065   -2.0131 C   0  0  0  0  0  0  0  0  0  0  0  0
   -1.0607    0.8733   -1.6884 O   0  0  0  0  0  0  0  0  0  0  0  0
   -1.3060    1.9060   -2.6153 C   0  0  0  0  0  0  0  0  0  0  0  0
   -1.4511    0.1462    0.8923 N   0  0  0  0  0  0  0  0  0  0  0  0
   -2.7755    0.0307    1.1585 C   0  0  0  0  0  0  0  0  0  0  0  0
   -3.4324    1.2904    1.6316 C   0  0  0  0  0  0  0  0  0  0  0  0
   -4.0662    1.3341    2.8661 C   0  0  0  0  0  0  0  0  0  0  0  0
   -4.7078    2.4918    3.2723 C   0  0  0  0  0  0  0  0  0  0  0  0
   -4.7432    3.6028    2.4466 C   0  0  0  0  0  0  0  0  0  0  0  0
   -4.1301    3.5355    1.2071 C   0  0  0  0  0  0  0  0  0  0  0  0
   -4.1893    5.0449    0.0463 Br  0  0  0  0  0  0  0  0  0  0  0  0
   -3.4712    2.3943    0.7887 C   0  0  0  0  0  0  0  0  0  0  0  0
   -3.3899   -0.9976    0.9727 O   0  0  0  0  0  0  0  0  0  0  0  0
   -0.5787    1.2025    1.3209 C   0  0  0  0  0  0  0  0  0  0  0  0
   -0.4505    1.2264    2.8535 C   0  0  0  0  0  0  0  0  0  0  0  0
    0.5077    2.0578    3.2520 O   0  0  0  0  0  0  0  0  0  0  0  0
   -1.1513    0.6038    3.6002 O   0  0  0  0  0  0  0  0  0  0  0  0
    0.6744    0.9379    0.6576 N   0  0  0  0  0  0  0  0  0  0  0  0
    1.2690    1.9561   -0.0292 C   0  0  0  0  0  0  0  0  0  0  0  0
    2.4470    1.5487   -0.8525 C   0  0  0  0  0  0  0  0  0  0  0  0
    2.4486    1.8700   -2.2038 C   0  0  0  0  0  0  0  0  0  0  0  0
    3.5272    1.4965   -2.9840 C   0  0  0  0  0  0  0  0  0  0  0  0
    3.5060    1.8963   -4.8451 Br  0  0  0  0  0  0  0  0  0  0  0  0
    4.6159    0.8347   -2.4420 C   0  0  0  0  0  0  0  0  0  0  0  0
    4.6198    0.5514   -1.0868 C   0  0  0  0  0  0  0  0  0  0  0  0
    3.5420    0.9002   -0.2920 C   0  0  0  0  0  0  0  0  0  0  0  0
    0.8825    3.1026    0.0463 O   0  0  0  0  0  0  0  0  0  0  0  0
    1.4074   -4.0359   -2.2625 H   0  0  0  0  0  0  0  0  0  0  0  0
    3.0112   -4.1103   -1.4872 H   0  0  0  0  0  0  0  0  0  0  0  0
    1.6002   -4.8861   -0.7104 H   0  0  0  0  0  0  0  0  0  0  0  0
    3.2534   -4.3074    0.8616 H   0  0  0  0  0  0  0  0  0  0  0  0
    4.0332   -3.6250    3.0714 H   0  0  0  0  0  0  0  0  0  0  0  0
    3.3426   -1.4561    4.0285 H   0  0  0  0  0  0  0  0  0  0  0  0
    1.8569    0.0276    2.7385 H   0  0  0  0  0  0  0  0  0  0  0  0
    1.0928   -0.5100   -0.7857 H   0  0  0  0  0  0  0  0  0  0  0  0
   -0.7745   -1.8319    1.0174 H   0  0  0  0  0  0  0  0  0  0  0  0
   -1.4543   -3.4239   -0.4933 H   0  0  0  0  0  0  0  0  0  0  0  0
   -2.3154   -4.0988   -2.7056 H   0  0  0  0  0  0  0  0  0  0  0  0
   -2.6202   -2.3908   -4.4660 H   0  0  0  0  0  0  0  0  0  0  0  0
   -2.0647   -0.0581   -4.0326 H   0  0  0  0  0  0  0  0  0  0  0  0
   -2.3707    1.9858   -2.8569 H   0  0  0  0  0  0  0  0  0  0  0  0
   -0.7384    1.7623   -3.5404 H   0  0  0  0  0  0  0  0  0  0  0  0
   -0.9753    2.8225   -2.1259 H   0  0  0  0  0  0  0  0  0  0  0  0
   -4.0389    0.4640    3.5020 H   0  0  0  0  0  0  0  0  0  0  0  0
   -5.1910    2.5319    4.2366 H   0  0  0  0  0  0  0  0  0  0  0  0
   -5.2461    4.5062    2.7555 H   0  0  0  0  0  0  0  0  0  0  0  0
   -3.0078    2.3557   -0.1855 H   0  0  0  0  0  0  0  0  0  0  0  0
   -0.9177    2.2074    1.0185 H   0  0  0  0  0  0  0  0  0  0  0  0
    0.5492    2.1064    4.2218 H   0  0  0  0  0  0  0  0  0  0  0  0
    1.6134    2.4015   -2.6318 H   0  0  0  0  0  0  0  0  0  0  0  0
    5.4490    0.5544   -3.0681 H   0  0  0  0  0  0  0  0  0  0  0  0
    5.4700    0.0502   -0.6498 H   0  0  0  0  0  0  0  0  0  0  0  0
    3.5540    0.6789    0.7632 H   0  0  0  0  0  0  0  0  0  0  0  0
  1  2  1  0  0  0  0
  2  3  1  0  0  0  0
  1  4  4  0  0  0  0
  4  5  4  0  0  0  0
  5  6  4  0  0  0  0
  6  7  4  0  0  0  0
  1  8  4  0  0  0  0
  7  8  4  0  0  0  0
  8  9  1  0  0  0  0
  9 10  1  0  0  0  0
 10 11  1  0  0  0  0
 11 12  4  0  0  0  0
 12 13  4  0  0  0  0
 13 14  4  0  0  0  0
 14 15  4  0  0  0  0
 11 16  4  0  0  0  0
 15 16  4  0  0  0  0
 16 17  1  0  0  0  0
 17 18  1  0  0  0  0
 10 19  1  0  0  0  0
 19 20  4  0  0  0  0
 20 21  1  0  0  0  0
 21 22  4  0  0  0  0
 22 23  4  0  0  0  0
 23 24  4  0  0  0  0
 24 25  4  0  0  0  0
 25 26  1  0  0  0  0
 21 27  4  0  0  0  0
 25 27  4  0  0  0  0
 20 28  2  0  0  0  0
 19 29  1  0  0  0  0
 29 30  1  0  0  0  0
 30 31  1  0  0  0  0
 30 32  2  0  0  0  0
  9 33  1  0  0  0  0
 29 33  1  0  0  0  0
 33 34  1  0  0  0  0
 34 35  1  0  0  0  0
 35 36  4  0  0  0  0
 36 37  4  0  0  0  0
 37 38  1  0  0  0  0
 37 39  4  0  0  0  0
 39 40  4  0  0  0  0
 35 41  4  0  0  0  0
 40 41  4  0  0  0  0
 34 42  2  0  0  0  0
  3 43  1  0  0  0  0
  3 44  1  0  0  0  0
  3 45  1  0  0  0  0
  4 46  1  0  0  0  0
  5 47  1  0  0  0  0
  6 48  1  0  0  0  0
  7 49  1  0  0  0  0
  9 50  1  0  0  0  0
 10 51  1  0  0  0  0
 12 52  1  0  0  0  0
 13 53  1  0  0  0  0
 14 54  1  0  0  0  0
 15 55  1  0  0  0  0
 18 56  1  0  0  0  0
 18 57  1  0  0  0  0
 18 58  1  0  0  0  0
 22 59  1  0  0  0  0
 23 60  1  0  0  0  0
 24 61  1  0  0  0  0
 27 62  1  0  0  0  0
 29 63  1  0  0  0  0
 31 64  1  0  0  0  0
 36 65  1  0  0  0  0
 39 66  1  0  0  0  0
 40 67  1  0  0  0  0
 41 68  1  0  0  0  0
M  END
