
  xtb     03172201043D
 xtb: 6.3.3 (4ae9cef)
 60 64  0     0  0            999 V2000
   -2.5682   -1.6776    1.1067 O   0  0  0  0  0  0  0  0  0  0  0  0
   -1.9396   -0.6424    1.0701 C   0  0  0  0  0  0  0  0  0  0  0  0
   -1.8523    0.2905    2.2299 C   0  0  0  0  0  0  0  0  0  0  0  0
   -1.5613   -0.2577    3.4763 C   0  0  0  0  0  0  0  0  0  0  0  0
   -1.4466    0.5514    4.5903 C   0  0  0  0  0  0  0  0  0  0  0  0
   -1.6455    1.9182    4.4588 C   0  0  0  0  0  0  0  0  0  0  0  0
   -1.4907    2.9390    5.8420 Cl  0  0  0  0  0  0  0  0  0  0  0  0
   -1.9739    2.4740    3.2312 C   0  0  0  0  0  0  0  0  0  0  0  0
   -2.0756    1.6604    2.1177 C   0  0  0  0  0  0  0  0  0  0  0  0
   -1.2521   -0.2661   -0.0547 N   0  0  0  0  0  0  0  0  0  0  0  0
   -0.1892    0.7022   -0.1059 C   0  0  0  0  0  0  0  0  0  0  0  0
   -0.5403    1.8190   -1.1158 C   0  0  0  0  0  0  0  0  0  0  0  0
    0.1527    1.7229   -2.2408 O   0  0  0  0  0  0  0  0  0  0  0  0
   -1.3454    2.6793   -0.8927 O   0  0  0  0  0  0  0  0  0  0  0  0
    0.9472   -0.0724   -0.5325 N   0  0  0  0  0  0  0  0  0  0  0  0
    2.2514    0.2939   -0.4484 C   0  0  0  0  0  0  0  0  0  0  0  0
    2.4774    1.5146    0.3936 C   0  0  0  0  0  0  0  0  0  0  0  0
    2.9452    2.6838   -0.1903 C   0  0  0  0  0  0  0  0  0  0  0  0
    3.1496    3.8163    0.5776 C   0  0  0  0  0  0  0  0  0  0  0  0
    2.8923    3.7708    1.9390 C   0  0  0  0  0  0  0  0  0  0  0  0
    3.1323    5.1833    2.9007 Cl  0  0  0  0  0  0  0  0  0  0  0  0
    2.4482    2.6026    2.5408 C   0  0  0  0  0  0  0  0  0  0  0  0
    2.2433    1.4772    1.7647 C   0  0  0  0  0  0  0  0  0  0  0  0
    3.1404   -0.3228   -0.9908 O   0  0  0  0  0  0  0  0  0  0  0  0
    0.5178   -1.2507   -1.2792 C   0  0  0  0  0  0  0  0  0  0  0  0
    1.1284   -2.5004   -0.6995 C   0  0  0  0  0  0  0  0  0  0  0  0
    1.0627   -2.7359    0.6682 C   0  0  0  0  0  0  0  0  0  0  0  0
    1.6042   -3.8887    1.2054 C   0  0  0  0  0  0  0  0  0  0  0  0
    2.2157   -4.8177    0.3806 C   0  0  0  0  0  0  0  0  0  0  0  0
    2.2863   -4.5870   -0.9820 C   0  0  0  0  0  0  0  0  0  0  0  0
    1.7453   -3.4328   -1.5198 C   0  0  0  0  0  0  0  0  0  0  0  0
   -1.0278   -1.2256   -1.1276 C   0  0  0  0  0  0  0  0  0  0  0  0
   -1.7514   -0.8540   -2.4004 C   0  0  0  0  0  0  0  0  0  0  0  0
   -1.4428   -1.5145   -3.5842 C   0  0  0  0  0  0  0  0  0  0  0  0
   -2.0915   -1.1863   -4.7605 C   0  0  0  0  0  0  0  0  0  0  0  0
   -3.0619   -0.1982   -4.7681 C   0  0  0  0  0  0  0  0  0  0  0  0
   -3.3947    0.4421   -3.5878 C   0  0  0  0  0  0  0  0  0  0  0  0
   -2.7483    0.1120   -2.4087 C   0  0  0  0  0  0  0  0  0  0  0  0
   -1.4234   -1.3254    3.5619 H   0  0  0  0  0  0  0  0  0  0  0  0
   -1.2089    0.1295    5.5543 H   0  0  0  0  0  0  0  0  0  0  0  0
   -2.1472    3.5348    3.1466 H   0  0  0  0  0  0  0  0  0  0  0  0
   -2.3363    2.0956    1.1656 H   0  0  0  0  0  0  0  0  0  0  0  0
   -0.0352    1.1807    0.8676 H   0  0  0  0  0  0  0  0  0  0  0  0
   -0.0977    2.4206   -2.8688 H   0  0  0  0  0  0  0  0  0  0  0  0
    3.1489    2.7022   -1.2500 H   0  0  0  0  0  0  0  0  0  0  0  0
    3.5080    4.7282    0.1266 H   0  0  0  0  0  0  0  0  0  0  0  0
    2.2659    2.5770    3.6036 H   0  0  0  0  0  0  0  0  0  0  0  0
    1.9136    0.5597    2.2311 H   0  0  0  0  0  0  0  0  0  0  0  0
    0.8185   -1.1403   -2.3265 H   0  0  0  0  0  0  0  0  0  0  0  0
    0.5860   -2.0133    1.3163 H   0  0  0  0  0  0  0  0  0  0  0  0
    1.5492   -4.0629    2.2698 H   0  0  0  0  0  0  0  0  0  0  0  0
    2.6396   -5.7174    0.8007 H   0  0  0  0  0  0  0  0  0  0  0  0
    2.7680   -5.3056   -1.6282 H   0  0  0  0  0  0  0  0  0  0  0  0
    1.8126   -3.2492   -2.5820 H   0  0  0  0  0  0  0  0  0  0  0  0
   -1.4014   -2.1975   -0.7807 H   0  0  0  0  0  0  0  0  0  0  0  0
   -0.7009   -2.2993   -3.5819 H   0  0  0  0  0  0  0  0  0  0  0  0
   -1.8411   -1.7060   -5.6732 H   0  0  0  0  0  0  0  0  0  0  0  0
   -3.5651    0.0612   -5.6873 H   0  0  0  0  0  0  0  0  0  0  0  0
   -4.1635    1.2003   -3.5789 H   0  0  0  0  0  0  0  0  0  0  0  0
   -3.0310    0.6041   -1.4905 H   0  0  0  0  0  0  0  0  0  0  0  0
  1  2  2  0  0  0  0
  2  3  1  0  0  0  0
  3  4  4  0  0  0  0
  4  5  4  0  0  0  0
  5  6  4  0  0  0  0
  6  7  1  0  0  0  0
  6  8  4  0  0  0  0
  3  9  4  0  0  0  0
  8  9  4  0  0  0  0
  2 10  1  0  0  0  0
 10 11  1  0  0  0  0
 11 12  1  0  0  0  0
 12 13  1  0  0  0  0
 12 14  2  0  0  0  0
 11 15  1  0  0  0  0
 15 16  4  0  0  0  0
 16 17  1  0  0  0  0
 17 18  4  0  0  0  0
 18 19  4  0  0  0  0
 19 20  4  0  0  0  0
 20 21  1  0  0  0  0
 20 22  4  0  0  0  0
 17 23  4  0  0  0  0
 22 23  4  0  0  0  0
 16 24  2  0  0  0  0
 15 25  1  0  0  0  0
 25 26  1  0  0  0  0
 26 27  4  0  0  0  0
 27 28  4  0  0  0  0
 28 29  4  0  0  0  0
 29 30  4  0  0  0  0
 26 31  4  0  0  0  0
 30 31  4  0  0  0  0
 10 32  1  0  0  0  0
 25 32  1  0  0  0  0
 32 33  1  0  0  0  0
 33 34  4  0  0  0  0
 34 35  4  0  0  0  0
 35 36  4  0  0  0  0
 36 37  4  0  0  0  0
 33 38  4  0  0  0  0
 37 38  4  0  0  0  0
  4 39  1  0  0  0  0
  5 40  1  0  0  0  0
  8 41  1  0  0  0  0
  9 42  1  0  0  0  0
 11 43  1  0  0  0  0
 13 44  1  0  0  0  0
 18 45  1  0  0  0  0
 19 46  1  0  0  0  0
 22 47  1  0  0  0  0
 23 48  1  0  0  0  0
 25 49  1  0  0  0  0
 27 50  1  0  0  0  0
 28 51  1  0  0  0  0
 29 52  1  0  0  0  0
 30 53  1  0  0  0  0
 31 54  1  0  0  0  0
 32 55  1  0  0  0  0
 34 56  1  0  0  0  0
 35 57  1  0  0  0  0
 36 58  1  0  0  0  0
 37 59  1  0  0  0  0
 38 60  1  0  0  0  0
M  END
