78

C      1.817054    1.757410   -1.967033
C      2.638902    2.738335   -2.530489
C      3.252931    3.708975   -1.727493
C      4.076622    4.704512   -2.278501
C      4.682349    5.660563   -1.461631
C      4.475385    5.630870   -0.085947
C      3.658228    4.648341    0.475254
C      3.038409    3.681653   -0.332915
C      2.208690    2.690059    0.217507
C      1.580928    1.724690   -0.587988
C      0.670860    0.695924    0.058199
C     -0.780229    0.710232   -0.492055
C     -1.704214    1.535650    0.388836
C     -1.987809    1.164355    1.714804
C     -2.848673    1.925289    2.524199
C     -3.138931    1.545092    3.844486
C     -4.006087    2.304952    4.629945
C     -4.589487    3.455607    4.108125
C     -4.307655    3.848826    2.799581
C     -3.441342    3.092271    1.993925
C     -3.152753    3.466273    0.673098
C     -2.294641    2.699143   -0.119114
N     -1.145644   -0.704301   -0.533800
C     -2.376902   -1.119050   -1.009660
C     -2.713628   -2.523079   -0.832665
C     -2.732598   -3.216581    0.368023
C     -2.480300   -2.848407    1.778262
O     -3.122506   -4.502675    0.161402
C     -3.395586   -4.632760   -1.158166
C     -3.182023   -3.445489   -1.825923
C     -3.405203   -3.193770   -3.271690
O     -3.151157   -0.356635   -1.578421
C      0.045344   -1.543537   -0.583580
C      0.330227   -1.991246   -2.042048
O      0.263401   -3.331236   -2.198440
O      0.564448   -1.275276   -3.003797
N      1.130321   -0.680670   -0.125718
C      2.227618   -1.146536    0.578621
C      2.642283   -2.505788    0.293537
C      2.472944   -3.583450    1.142776
C      1.874568   -3.748699    2.483118
O      2.968128   -4.713783    0.570008
C      3.493570   -4.358941   -0.627937
C      3.338559   -3.007029   -0.854408
C      3.831002   -2.245142   -2.029656
O      2.828024   -0.466292    1.402383
H      1.363276    1.024720   -2.628120
H      2.794954    2.735890   -3.606962
H      4.253700    4.742192   -3.351067
H      5.319113    6.424535   -1.899833
H      4.950142    6.370745    0.552856
H      3.506754    4.642019    1.552405
H      2.053894    2.666399    1.296068
H      0.666077    0.863815    1.144164
H     -0.827736    1.072294   -1.526926
H     -1.530272    0.267864    2.129348
H     -2.695168    0.648441    4.269311
H     -4.229549    1.995421    5.646608
H     -5.265630    4.047999    4.718833
H     -4.773397    4.750906    2.409670
H     -3.607110    4.356320    0.242239
H     -2.109503    3.010499   -1.146251
H     -2.280695   -3.738939    2.385508
H     -3.353948   -2.338838    2.199279
H     -1.613534   -2.186307    1.873858
H     -3.742803   -5.609821   -1.465580
H     -4.478540   -3.149061   -3.488755
H     -2.950732   -2.252552   -3.596241
H     -2.965629   -3.997816   -3.870873
H     -0.064234   -2.413387    0.067461
H      0.427256   -3.486483   -3.152250
H      0.974715   -4.368952    2.422818
H      2.584292   -4.231567    3.162075
H      1.593935   -2.785033    2.917192
H      3.949999   -5.162969   -1.189332
H      3.443354   -1.221999   -2.041851
H      3.528047   -2.735373   -2.961136
H      4.925544   -2.189609   -2.011534
