80

C      0.366009   -1.649595   -4.029743
C      1.058567   -2.507577   -4.891553
C      2.442649   -2.681874   -4.770983
C      3.150151   -3.552797   -5.615669
C      4.534360   -3.695511   -5.493434
C      5.223436   -2.973387   -4.524314
C      4.531002   -2.107978   -3.675478
C      3.138510   -1.954322   -3.783443
C      2.422798   -1.097775   -2.926249
C      1.024774   -0.966170   -2.995252
C      0.255675   -0.031029   -2.056902
C     -1.158333   -0.558094   -1.631699
C     -2.265937    0.465334   -1.882546
C     -2.152491    1.807434   -1.479864
C     -3.199505    2.726335   -1.674531
C     -3.087225    4.066724   -1.268807
C     -4.144099    4.959352   -1.449869
C     -5.324655    4.525855   -2.040191
C     -5.452054    3.198804   -2.454876
C     -4.397300    2.289674   -2.280912
C     -4.510798    0.952176   -2.686185
C     -3.460988    0.053026   -2.486189
N     -1.045539   -0.854719   -0.202071
C     -2.059828   -1.485943    0.491424
C     -2.016589   -1.454658    1.967520
C     -2.025888   -2.656317    2.675538
C     -1.979574   -2.641451    4.072459
C     -1.937833   -1.428661    4.759738
O     -1.880915   -1.279335    6.118752
C     -1.669186   -2.461847    6.880489
C     -1.978513   -0.228179    4.040202
C     -2.022423   -0.234239    2.644784
O     -3.001614   -2.052946   -0.053433
C      0.305079   -0.626694    0.281430
C      1.056198   -1.986779    0.482497
O      2.306392   -2.030228   -0.019897
O      0.634237   -2.964895    1.081868
N      0.917515    0.196099   -0.756364
C      1.733026    1.290420   -0.543670
C      2.195294    1.558823    0.829967
C      1.636741    2.633924    1.522581
C      2.021513    2.881482    2.843782
C      2.965723    2.060081    3.467287
O      3.403337    2.185199    4.757246
C      3.211232    3.460342    5.363011
C      3.527496    0.993344    2.757813
C      3.156858    0.744269    1.434422
O      2.051942    2.088846   -1.418380
H     -0.700488   -1.519451   -4.197339
H      0.504290   -3.033238   -5.666684
H      2.628480   -4.121253   -6.382542
H      5.069931   -4.367944   -6.157287
H      6.301957   -3.076965   -4.433439
H      5.087575   -1.548761   -2.927917
H      2.981331   -0.526466   -2.186566
H      0.185727    0.921499   -2.595794
H     -1.421588   -1.498597   -2.127209
H     -1.237242    2.148461   -0.999761
H     -2.169785    4.429681   -0.810579
H     -4.042536    5.993177   -1.127767
H     -6.148663    5.219565   -2.178275
H     -6.384943    2.875290   -2.907952
H     -5.426219    0.586624   -3.144789
H     -3.600617   -0.987857   -2.774681
H     -2.047690   -3.600462    2.138803
H     -1.968224   -3.594785    4.590244
H     -2.534316   -3.132059    6.813632
H     -0.751540   -2.972662    6.573475
H     -1.551108   -2.170511    7.929050
H     -1.976574    0.717759    4.576170
H     -2.077822    0.704271    2.099995
H      0.295878   -0.112524    1.242677
H      2.587132   -2.964350    0.108352
H      0.905143    3.277651    1.040082
H      1.563631    3.713884    3.365329
H      2.148642    3.650299    5.553850
H      3.730846    3.452596    6.327609
H      3.647299    4.260910    4.752656
H      4.271415    0.364368    3.242786
H      3.630853   -0.062693    0.883566
