
  xtb     03162223513D
 xtb: 6.3.3 (4ae9cef)
 80 86  0     0  0            999 V2000
    0.3362   -1.4313   -4.1617 C   0  0  0  0  0  0  0  0  0  0  0  0
    0.9484   -2.3046   -5.0131 C   0  0  0  0  0  0  0  0  0  0  0  0
    2.2676   -2.7447   -4.7757 C   0  0  0  0  0  0  0  0  0  0  0  0
    2.9236   -3.6603   -5.6234 C   0  0  0  0  0  0  0  0  0  0  0  0
    4.2067   -4.0547   -5.3647 C   0  0  0  0  0  0  0  0  0  0  0  0
    4.8926   -3.5492   -4.2492 C   0  0  0  0  0  0  0  0  0  0  0  0
    4.2839   -2.6587   -3.4098 C   0  0  0  0  0  0  0  0  0  0  0  0
    2.9598   -2.2352   -3.6476 C   0  0  0  0  0  0  0  0  0  0  0  0
    2.3034   -1.3269   -2.7925 C   0  0  0  0  0  0  0  0  0  0  0  0
    1.0079   -0.9470   -3.0208 C   0  0  0  0  0  0  0  0  0  0  0  0
    0.2866    0.0018   -2.0981 C   0  0  0  0  0  0  0  0  0  0  0  0
   -1.1183   -0.5176   -1.6665 C   0  0  0  0  0  0  0  0  0  0  0  0
   -2.2062    0.4824   -1.9527 C   0  0  0  0  0  0  0  0  0  0  0  0
   -2.2184    1.6937   -1.3107 C   0  0  0  0  0  0  0  0  0  0  0  0
   -3.2114    2.6532   -1.5846 C   0  0  0  0  0  0  0  0  0  0  0  0
   -3.2412    3.9066   -0.9380 C   0  0  0  0  0  0  0  0  0  0  0  0
   -4.2159    4.8188   -1.2288 C   0  0  0  0  0  0  0  0  0  0  0  0
   -5.2063    4.5205   -2.1783 C   0  0  0  0  0  0  0  0  0  0  0  0
   -5.2042    3.3150   -2.8220 C   0  0  0  0  0  0  0  0  0  0  0  0
   -4.2115    2.3523   -2.5456 C   0  0  0  0  0  0  0  0  0  0  0  0
   -4.1782    1.0982   -3.1891 C   0  0  0  0  0  0  0  0  0  0  0  0
   -3.2025    0.1881   -2.9001 C   0  0  0  0  0  0  0  0  0  0  0  0
   -0.9658   -0.7287   -0.2304 N   0  0  0  0  0  0  0  0  0  0  0  0
   -2.0005   -1.0830    0.5774 C   0  0  0  0  0  0  0  0  0  0  0  0
   -1.6330   -1.1613    2.0255 C   0  0  0  0  0  0  0  0  0  0  0  0
   -1.7795   -2.3483    2.7246 C   0  0  0  0  0  0  0  0  0  0  0  0
   -1.4527   -2.4261    4.0681 C   0  0  0  0  0  0  0  0  0  0  0  0
   -0.9841   -1.2995    4.7363 C   0  0  0  0  0  0  0  0  0  0  0  0
   -0.6310   -1.2590    6.0477 O   0  0  0  0  0  0  0  0  0  0  0  0
   -0.7581   -2.4301    6.8185 C   0  0  0  0  0  0  0  0  0  0  0  0
   -0.8567   -0.0967    4.0369 C   0  0  0  0  0  0  0  0  0  0  0  0
   -1.1780   -0.0290    2.6999 C   0  0  0  0  0  0  0  0  0  0  0  0
   -3.1204   -1.2717    0.1572 O   0  0  0  0  0  0  0  0  0  0  0  0
    0.4356   -0.7393    0.0991 C   0  0  0  0  0  0  0  0  0  0  0  0
    1.0159   -2.1510   -0.1244 C   0  0  0  0  0  0  0  0  0  0  0  0
    2.2978   -2.2173    0.2329 O   0  0  0  0  0  0  0  0  0  0  0  0
    0.3901   -3.0852   -0.5339 O   0  0  0  0  0  0  0  0  0  0  0  0
    0.9963    0.1980   -0.8392 N   0  0  0  0  0  0  0  0  0  0  0  0
    1.4400    1.4563   -0.5061 C   0  0  0  0  0  0  0  0  0  0  0  0
    1.8122    1.6525    0.9198 C   0  0  0  0  0  0  0  0  0  0  0  0
    1.3118    2.7713    1.5739 C   0  0  0  0  0  0  0  0  0  0  0  0
    1.5824    2.9968    2.9108 C   0  0  0  0  0  0  0  0  0  0  0  0
    2.3897    2.1063    3.6133 C   0  0  0  0  0  0  0  0  0  0  0  0
    2.7158    2.2189    4.9243 O   0  0  0  0  0  0  0  0  0  0  0  0
    2.2205    3.3168    5.6541 C   0  0  0  0  0  0  0  0  0  0  0  0
    2.9276    1.0023    2.9456 C   0  0  0  0  0  0  0  0  0  0  0  0
    2.6402    0.7746    1.6187 C   0  0  0  0  0  0  0  0  0  0  0  0
    1.5129    2.3379   -1.3353 O   0  0  0  0  0  0  0  0  0  0  0  0
   -0.6688   -1.0906   -4.3614 H   0  0  0  0  0  0  0  0  0  0  0  0
    0.4281   -2.6714   -5.8862 H   0  0  0  0  0  0  0  0  0  0  0  0
    2.3921   -4.0455   -6.4819 H   0  0  0  0  0  0  0  0  0  0  0  0
    4.7035   -4.7580   -6.0168 H   0  0  0  0  0  0  0  0  0  0  0  0
    5.9066   -3.8709   -4.0607 H   0  0  0  0  0  0  0  0  0  0  0  0
    4.8085   -2.2632   -2.5510 H   0  0  0  0  0  0  0  0  0  0  0  0
    2.8493   -0.9249   -1.9513 H   0  0  0  0  0  0  0  0  0  0  0  0
    0.2053    0.9815   -2.5863 H   0  0  0  0  0  0  0  0  0  0  0  0
   -1.3467   -1.4745   -2.1497 H   0  0  0  0  0  0  0  0  0  0  0  0
   -1.4577    1.9321   -0.5796 H   0  0  0  0  0  0  0  0  0  0  0  0
   -2.4753    4.1333   -0.2098 H   0  0  0  0  0  0  0  0  0  0  0  0
   -4.2322    5.7778   -0.7313 H   0  0  0  0  0  0  0  0  0  0  0  0
   -5.9697    5.2537   -2.3946 H   0  0  0  0  0  0  0  0  0  0  0  0
   -5.9644    3.0806   -3.5535 H   0  0  0  0  0  0  0  0  0  0  0  0
   -4.9444    0.8669   -3.9149 H   0  0  0  0  0  0  0  0  0  0  0  0
   -3.1935   -0.7758   -3.3876 H   0  0  0  0  0  0  0  0  0  0  0  0
   -2.1476   -3.2220    2.2088 H   0  0  0  0  0  0  0  0  0  0  0  0
   -1.5715   -3.3673    4.5811 H   0  0  0  0  0  0  0  0  0  0  0  0
   -1.7955   -2.7769    6.8539 H   0  0  0  0  0  0  0  0  0  0  0  0
   -0.1182   -3.2327    6.4387 H   0  0  0  0  0  0  0  0  0  0  0  0
   -0.4356   -2.1578    7.8222 H   0  0  0  0  0  0  0  0  0  0  0  0
   -0.5045    0.7714    4.5707 H   0  0  0  0  0  0  0  0  0  0  0  0
   -1.0933    0.9135    2.1772 H   0  0  0  0  0  0  0  0  0  0  0  0
    0.6310   -0.4527    1.1363 H   0  0  0  0  0  0  0  0  0  0  0  0
    2.6546   -3.1059    0.0668 H   0  0  0  0  0  0  0  0  0  0  0  0
    0.6960    3.4677    1.0242 H   0  0  0  0  0  0  0  0  0  0  0  0
    1.1637    3.8671    3.3903 H   0  0  0  0  0  0  0  0  0  0  0  0
    1.1264    3.3176    5.6865 H   0  0  0  0  0  0  0  0  0  0  0  0
    2.6089    3.1978    6.6639 H   0  0  0  0  0  0  0  0  0  0  0  0
    2.5742    4.2662    5.2399 H   0  0  0  0  0  0  0  0  0  0  0  0
    3.5694    0.3352    3.4984 H   0  0  0  0  0  0  0  0  0  0  0  0
    3.0696   -0.0780    1.1157 H   0  0  0  0  0  0  0  0  0  0  0  0
  1  2  2  0  0  0  0
  2  3  4  0  0  0  0
  3  4  4  0  0  0  0
  4  5  2  0  0  0  0
  5  6  4  0  0  0  0
  6  7  2  0  0  0  0
  3  8  4  0  0  0  0
  7  8  4  0  0  0  0
  8  9  4  0  0  0  0
  1 10  4  0  0  0  0
  9 10  2  0  0  0  0
 10 11  1  0  0  0  0
 11 12  1  0  0  0  0
 12 13  1  0  0  0  0
 13 14  2  0  0  0  0
 14 15  4  0  0  0  0
 15 16  4  0  0  0  0
 16 17  2  0  0  0  0
 17 18  4  0  0  0  0
 18 19  2  0  0  0  0
 15 20  4  0  0  0  0
 19 20  4  0  0  0  0
 20 21  4  0  0  0  0
 13 22  4  0  0  0  0
 21 22  2  0  0  0  0
 12 23  1  0  0  0  0
 23 24  1  0  0  0  0
 24 25  1  0  0  0  0
 25 26  4  0  0  0  0
 26 27  4  0  0  0  0
 27 28  4  0  0  0  0
 28 29  1  0  0  0  0
 29 30  1  0  0  0  0
 28 31  4  0  0  0  0
 25 32  4  0  0  0  0
 31 32  4  0  0  0  0
 24 33  2  0  0  0  0
 23 34  1  0  0  0  0
 34 35  1  0  0  0  0
 35 36  1  0  0  0  0
 35 37  2  0  0  0  0
 11 38  1  0  0  0  0
 34 38  1  0  0  0  0
 38 39  1  0  0  0  0
 39 40  1  0  0  0  0
 40 41  4  0  0  0  0
 41 42  4  0  0  0  0
 42 43  4  0  0  0  0
 43 44  1  0  0  0  0
 44 45  1  0  0  0  0
 43 46  4  0  0  0  0
 40 47  4  0  0  0  0
 46 47  4  0  0  0  0
 39 48  2  0  0  0  0
  1 49  1  0  0  0  0
  2 50  1  0  0  0  0
  4 51  1  0  0  0  0
  5 52  1  0  0  0  0
  6 53  1  0  0  0  0
  7 54  1  0  0  0  0
  9 55  1  0  0  0  0
 11 56  1  0  0  0  0
 12 57  1  0  0  0  0
 14 58  1  0  0  0  0
 16 59  1  0  0  0  0
 17 60  1  0  0  0  0
 18 61  1  0  0  0  0
 19 62  1  0  0  0  0
 21 63  1  0  0  0  0
 22 64  1  0  0  0  0
 26 65  1  0  0  0  0
 27 66  1  0  0  0  0
 30 67  1  0  0  0  0
 30 68  1  0  0  0  0
 30 69  1  0  0  0  0
 31 70  1  0  0  0  0
 32 71  1  0  0  0  0
 34 72  1  0  0  0  0
 36 73  1  0  0  0  0
 41 74  1  0  0  0  0
 42 75  1  0  0  0  0
 45 76  1  0  0  0  0
 45 77  1  0  0  0  0
 45 78  1  0  0  0  0
 46 79  1  0  0  0  0
 47 80  1  0  0  0  0
M  END
