78

C      2.757373   -3.588859    0.371863
C      3.849951   -4.036382    1.115597
C      4.000451   -3.638761    2.440737
C      3.060230   -2.790868    3.022371
C      1.967374   -2.338952    2.279951
C      1.800488   -2.733863    0.943598
C      0.632059   -2.246840    0.106497
C     -0.764167   -2.601083    0.685122
C     -1.282065   -3.893399    0.075231
C     -1.326169   -5.058393    0.857166
C     -1.763457   -6.265630    0.310200
C     -2.155531   -6.325593   -1.025408
C     -2.115983   -5.178294   -1.814450
C     -1.681674   -3.969019   -1.269219
N     -1.566371   -1.425018    0.365686
C     -2.911302   -1.332351    0.675680
C     -3.622953   -0.105879    0.255611
C     -4.220774    0.694386    1.226802
C     -4.822732    1.897305    0.854568
C     -4.843208    2.306359   -0.489735
C     -5.492342    3.613304   -0.916100
C     -7.016638    3.528932   -0.811243
C     -4.958945    4.813485   -0.127590
C     -4.276913    1.463330   -1.460895
C     -3.674143    0.258625   -1.092813
O     -3.543312   -2.185511    1.286231
C     -0.709278   -0.286158    0.087857
C     -0.672388    0.714803    1.281027
O     -0.996823    1.990695    0.947018
O     -0.370323    0.418503    2.431799
N      0.651950   -0.786643   -0.037180
C      1.337254   -0.285444   -1.134578
C      2.479417    0.628343   -0.845002
C      2.854914    0.962168    0.459775
C      3.889125    1.876023    0.681050
C      4.564121    2.475170   -0.392757
C      5.671446    3.476450   -0.112903
C      7.045748    2.825430   -0.275579
C      5.559432    4.744264   -0.966675
C      4.206800    2.106315   -1.697755
C      3.169105    1.195981   -1.922503
O      0.972971   -0.506859   -2.284132
H      2.659422   -3.907237   -0.664498
H      4.587495   -4.692986    0.659578
H      4.850102   -3.984044    3.020051
H      3.181156   -2.475013    4.055667
H      1.256131   -1.665246    2.756377
H      0.732010   -2.667078   -0.904655
H     -0.758619   -2.676651    1.780413
H     -1.026335   -5.030881    1.903083
H     -1.802534   -7.158993    0.928118
H     -2.499898   -7.265917   -1.448261
H     -2.427711   -5.224135   -2.855053
H     -1.656520   -3.085978   -1.902893
H     -4.205675    0.391773    2.271855
H     -5.280283    2.511281    1.627577
H     -5.242685    3.793669   -1.969874
H     -7.479280    4.455584   -1.167013
H     -7.345065    3.362628    0.221380
H     -7.403751    2.704243   -1.419892
H     -5.360562    5.747429   -0.533708
H     -5.237749    4.768366    0.931396
H     -3.864412    4.867204   -0.184065
H     -4.313370    1.735661   -2.514930
H     -3.252988   -0.390548   -1.856959
H     -1.033164    0.219965   -0.825216
H     -1.278486    2.132819    0.021984
H      2.356908    0.527367    1.322424
H      4.156795    2.122783    1.707488
H      5.579807    3.802271    0.933590
H      7.842761    3.542464   -0.044028
H      7.207803    2.456398   -1.297400
H      7.156760    1.973257    0.405648
H      4.564673    5.193200   -0.872144
H      6.293379    5.490898   -0.642163
H      5.741212    4.544244   -2.027602
H      4.724060    2.528124   -2.556233
H      2.895889    0.943009   -2.944963
