
  xtb     03172202133D
 xtb: 6.3.3 (4ae9cef)
 74 80  0     0  0            999 V2000
   -0.4138   -3.2506   -1.7545 C   0  0  0  0  0  0  0  0  0  0  0  0
   -0.6707   -4.3963   -2.4846 C   0  0  0  0  0  0  0  0  0  0  0  0
   -1.4528   -4.3316   -3.6262 C   0  0  0  0  0  0  0  0  0  0  0  0
   -1.9865   -3.1184   -4.0233 C   0  0  0  0  0  0  0  0  0  0  0  0
   -1.7332   -1.9698   -3.2915 C   0  0  0  0  0  0  0  0  0  0  0  0
   -0.9330   -2.0252   -2.1588 C   0  0  0  0  0  0  0  0  0  0  0  0
   -0.6270   -0.7941   -1.3333 C   0  0  0  0  0  0  0  0  0  0  0  0
    0.9096   -0.5436   -1.2225 C   0  0  0  0  0  0  0  0  0  0  0  0
    1.3568   -0.3735    0.2080 C   0  0  0  0  0  0  0  0  0  0  0  0
    0.9454    0.7378    0.9353 C   0  0  0  0  0  0  0  0  0  0  0  0
    1.3808    0.9197    2.2346 C   0  0  0  0  0  0  0  0  0  0  0  0
    2.2259   -0.0071    2.8222 C   0  0  0  0  0  0  0  0  0  0  0  0
    2.6235   -1.1244    2.1093 C   0  0  0  0  0  0  0  0  0  0  0  0
    2.1886   -1.3085    0.8085 C   0  0  0  0  0  0  0  0  0  0  0  0
    1.1098    0.6739   -1.9877 N   0  0  0  0  0  0  0  0  0  0  0  0
    2.2551    1.3877   -2.0969 C   0  0  0  0  0  0  0  0  0  0  0  0
    3.4095    0.7725   -1.3749 C   0  0  0  0  0  0  0  0  0  0  0  0
    4.1994   -0.2908   -1.7149 C   0  0  0  0  0  0  0  0  0  0  0  0
    5.1293   -0.4361   -0.6652 C   0  0  0  0  0  0  0  0  0  0  0  0
    4.8426    0.5494    0.2488 C   0  0  0  0  0  0  0  0  0  0  0  0
    5.4119    0.8615    1.5443 C   0  0  0  0  0  0  0  0  0  0  0  0
    4.9103    1.9319    2.2866 C   0  0  0  0  0  0  0  0  0  0  0  0
    5.4299    2.2222    3.5327 C   0  0  0  0  0  0  0  0  0  0  0  0
    6.4550    1.4526    4.0584 C   0  0  0  0  0  0  0  0  0  0  0  0
    6.9599    0.3890    3.3275 C   0  0  0  0  0  0  0  0  0  0  0  0
    6.4450    0.0922    2.0808 C   0  0  0  0  0  0  0  0  0  0  0  0
    3.8041    1.2902   -0.2002 O   0  0  0  0  0  0  0  0  0  0  0  0
    2.3263    2.4132   -2.7365 O   0  0  0  0  0  0  0  0  0  0  0  0
   -0.1002    1.0720   -2.6614 C   0  0  0  0  0  0  0  0  0  0  0  0
   -0.1173    0.6066   -4.1269 C   0  0  0  0  0  0  0  0  0  0  0  0
    0.9393   -0.1494   -4.4244 O   0  0  0  0  0  0  0  0  0  0  0  0
   -0.9823    0.8746   -4.9095 O   0  0  0  0  0  0  0  0  0  0  0  0
   -1.1494    0.4290   -1.9060 N   0  0  0  0  0  0  0  0  0  0  0  0
   -2.1719    1.1986   -1.4020 C   0  0  0  0  0  0  0  0  0  0  0  0
   -3.1886    0.4926   -0.6085 C   0  0  0  0  0  0  0  0  0  0  0  0
   -3.6316   -0.8110   -0.5546 C   0  0  0  0  0  0  0  0  0  0  0  0
   -4.7337   -0.8175    0.3142 C   0  0  0  0  0  0  0  0  0  0  0  0
   -4.9041    0.4837    0.7397 C   0  0  0  0  0  0  0  0  0  0  0  0
   -5.8777    1.0814    1.6332 C   0  0  0  0  0  0  0  0  0  0  0  0
   -6.8244    0.2971    2.2941 C   0  0  0  0  0  0  0  0  0  0  0  0
   -7.7512    0.8852    3.1324 C   0  0  0  0  0  0  0  0  0  0  0  0
   -7.7486    2.2577    3.3253 C   0  0  0  0  0  0  0  0  0  0  0  0
   -6.8110    3.0432    2.6740 C   0  0  0  0  0  0  0  0  0  0  0  0
   -5.8812    2.4633    1.8336 C   0  0  0  0  0  0  0  0  0  0  0  0
   -3.9719    1.2652    0.1733 O   0  0  0  0  0  0  0  0  0  0  0  0
   -2.2519    2.3837   -1.6472 O   0  0  0  0  0  0  0  0  0  0  0  0
    0.1853   -3.3043   -0.8567 H   0  0  0  0  0  0  0  0  0  0  0  0
   -0.2626   -5.3419   -2.1603 H   0  0  0  0  0  0  0  0  0  0  0  0
   -1.6515   -5.2254   -4.1981 H   0  0  0  0  0  0  0  0  0  0  0  0
   -2.6072   -3.0602   -4.9046 H   0  0  0  0  0  0  0  0  0  0  0  0
   -2.1686   -1.0314   -3.5989 H   0  0  0  0  0  0  0  0  0  0  0  0
   -1.0460   -0.9292   -0.3290 H   0  0  0  0  0  0  0  0  0  0  0  0
    1.4574   -1.3715   -1.6894 H   0  0  0  0  0  0  0  0  0  0  0  0
    0.2994    1.4715    0.4747 H   0  0  0  0  0  0  0  0  0  0  0  0
    1.0665    1.7923    2.7870 H   0  0  0  0  0  0  0  0  0  0  0  0
    2.5802    0.1443    3.8305 H   0  0  0  0  0  0  0  0  0  0  0  0
    3.2855   -1.8476    2.5614 H   0  0  0  0  0  0  0  0  0  0  0  0
    2.5144   -2.1731    0.2475 H   0  0  0  0  0  0  0  0  0  0  0  0
    4.1249   -0.8821   -2.6049 H   0  0  0  0  0  0  0  0  0  0  0  0
    5.9029   -1.1731   -0.6030 H   0  0  0  0  0  0  0  0  0  0  0  0
    4.1125    2.5286    1.8724 H   0  0  0  0  0  0  0  0  0  0  0  0
    5.0353    3.0539    4.0978 H   0  0  0  0  0  0  0  0  0  0  0  0
    6.8607    1.6811    5.0327 H   0  0  0  0  0  0  0  0  0  0  0  0
    7.7603   -0.2121    3.7337 H   0  0  0  0  0  0  0  0  0  0  0  0
    6.8423   -0.7379    1.5179 H   0  0  0  0  0  0  0  0  0  0  0  0
   -0.2418    2.1633   -2.6510 H   0  0  0  0  0  0  0  0  0  0  0  0
    0.9222   -0.3992   -5.3626 H   0  0  0  0  0  0  0  0  0  0  0  0
   -3.2431   -1.6517   -1.0917 H   0  0  0  0  0  0  0  0  0  0  0  0
   -5.3250   -1.6691    0.5796 H   0  0  0  0  0  0  0  0  0  0  0  0
   -6.8312   -0.7719    2.1495 H   0  0  0  0  0  0  0  0  0  0  0  0
   -8.4810    0.2710    3.6390 H   0  0  0  0  0  0  0  0  0  0  0  0
   -8.4761    2.7128    3.9807 H   0  0  0  0  0  0  0  0  0  0  0  0
   -6.8074    4.1130    2.8211 H   0  0  0  0  0  0  0  0  0  0  0  0
   -5.1521    3.0703    1.3194 H   0  0  0  0  0  0  0  0  0  0  0  0
  1  2  4  0  0  0  0
  2  3  4  0  0  0  0
  3  4  4  0  0  0  0
  4  5  4  0  0  0  0
  1  6  4  0  0  0  0
  5  6  4  0  0  0  0
  6  7  1  0  0  0  0
  7  8  1  0  0  0  0
  8  9  1  0  0  0  0
  9 10  4  0  0  0  0
 10 11  4  0  0  0  0
 11 12  4  0  0  0  0
 12 13  4  0  0  0  0
  9 14  4  0  0  0  0
 13 14  4  0  0  0  0
  8 15  1  0  0  0  0
 15 16  4  0  0  0  0
 16 17  1  0  0  0  0
 17 18  2  0  0  0  0
 18 19  4  0  0  0  0
 19 20  2  0  0  0  0
 20 21  1  0  0  0  0
 21 22  4  0  0  0  0
 22 23  4  0  0  0  0
 23 24  4  0  0  0  0
 24 25  4  0  0  0  0
 21 26  4  0  0  0  0
 25 26  4  0  0  0  0
 17 27  1  0  0  0  0
 20 27  1  0  0  0  0
 16 28  2  0  0  0  0
 15 29  1  0  0  0  0
 29 30  1  0  0  0  0
 30 31  1  0  0  0  0
 30 32  2  0  0  0  0
  7 33  1  0  0  0  0
 29 33  1  0  0  0  0
 33 34  1  0  0  0  0
 34 35  1  0  0  0  0
 35 36  4  0  0  0  0
 36 37  4  0  0  0  0
 37 38  4  0  0  0  0
 38 39  1  0  0  0  0
 39 40  4  0  0  0  0
 40 41  4  0  0  0  0
 41 42  4  0  0  0  0
 42 43  4  0  0  0  0
 39 44  4  0  0  0  0
 43 44  4  0  0  0  0
 35 45  1  0  0  0  0
 38 45  1  0  0  0  0
 34 46  2  0  0  0  0
  1 47  1  0  0  0  0
  2 48  1  0  0  0  0
  3 49  1  0  0  0  0
  4 50  1  0  0  0  0
  5 51  1  0  0  0  0
  7 52  1  0  0  0  0
  8 53  1  0  0  0  0
 10 54  1  0  0  0  0
 11 55  1  0  0  0  0
 12 56  1  0  0  0  0
 13 57  1  0  0  0  0
 14 58  1  0  0  0  0
 18 59  1  0  0  0  0
 19 60  1  0  0  0  0
 22 61  1  0  0  0  0
 23 62  1  0  0  0  0
 24 63  1  0  0  0  0
 25 64  1  0  0  0  0
 26 65  1  0  0  0  0
 29 66  1  0  0  0  0
 31 67  1  0  0  0  0
 36 68  1  0  0  0  0
 37 69  1  0  0  0  0
 40 70  1  0  0  0  0
 41 71  1  0  0  0  0
 42 72  1  0  0  0  0
 43 73  1  0  0  0  0
 44 74  1  0  0  0  0
M  END
