
  xtb     03172200393D
 xtb: 6.3.3 (4ae9cef)
 78 84  0     0  0            999 V2000
    1.6779   -1.7273   -1.4528 C   0  0  0  0  0  0  0  0  0  0  0  0
    2.7471   -2.5465   -1.2314 C   0  0  0  0  0  0  0  0  0  0  0  0
    3.3504   -2.6203    0.0411 C   0  0  0  0  0  0  0  0  0  0  0  0
    4.4793   -3.4253    0.2955 C   0  0  0  0  0  0  0  0  0  0  0  0
    5.0350   -3.4694    1.5435 C   0  0  0  0  0  0  0  0  0  0  0  0
    4.4857   -2.7171    2.5941 C   0  0  0  0  0  0  0  0  0  0  0  0
    3.3896   -1.9300    2.3810 C   0  0  0  0  0  0  0  0  0  0  0  0
    2.7989   -1.8561    1.1025 C   0  0  0  0  0  0  0  0  0  0  0  0
    1.6892   -1.0278    0.8460 C   0  0  0  0  0  0  0  0  0  0  0  0
    1.1542   -0.9360   -0.4126 C   0  0  0  0  0  0  0  0  0  0  0  0
    0.0140    0.0056   -0.6925 C   0  0  0  0  0  0  0  0  0  0  0  0
   -1.2647   -0.3323    0.1238 C   0  0  0  0  0  0  0  0  0  0  0  0
   -2.3642   -0.8408   -0.7779 C   0  0  0  0  0  0  0  0  0  0  0  0
   -2.2030   -2.0630   -1.3804 C   0  0  0  0  0  0  0  0  0  0  0  0
   -3.1764   -2.5788   -2.2566 C   0  0  0  0  0  0  0  0  0  0  0  0
   -3.0296   -3.8342   -2.8846 C   0  0  0  0  0  0  0  0  0  0  0  0
   -3.9941   -4.3080   -3.7281 C   0  0  0  0  0  0  0  0  0  0  0  0
   -5.1484   -3.5498   -3.9846 C   0  0  0  0  0  0  0  0  0  0  0  0
   -5.3198   -2.3304   -3.3921 C   0  0  0  0  0  0  0  0  0  0  0  0
   -4.3438   -1.8132   -2.5147 C   0  0  0  0  0  0  0  0  0  0  0  0
   -4.4872   -0.5640   -1.8784 C   0  0  0  0  0  0  0  0  0  0  0  0
   -3.5238   -0.0888   -1.0332 C   0  0  0  0  0  0  0  0  0  0  0  0
   -1.5930    0.8976    0.8257 N   0  0  0  0  0  0  0  0  0  0  0  0
   -2.1936    0.8451    2.0456 C   0  0  0  0  0  0  0  0  0  0  0  0
   -2.3391    2.1671    2.7419 C   0  0  0  0  0  0  0  0  0  0  0  0
   -1.5215    2.5042    3.8205 C   0  0  0  0  0  0  0  0  0  0  0  0
   -0.4446    1.5597    4.2771 C   0  0  0  0  0  0  0  0  0  0  0  0
   -0.9085    0.6093    5.1038 F   0  0  0  0  0  0  0  0  0  0  0  0
    0.5371    2.1840    4.9457 F   0  0  0  0  0  0  0  0  0  0  0  0
    0.1536    0.9144    3.2591 F   0  0  0  0  0  0  0  0  0  0  0  0
   -1.7077    3.6998    4.5011 C   0  0  0  0  0  0  0  0  0  0  0  0
   -2.7147    4.5632    4.1082 C   0  0  0  0  0  0  0  0  0  0  0  0
   -3.5385    4.2293    3.0466 C   0  0  0  0  0  0  0  0  0  0  0  0
   -3.3552    3.0370    2.3685 C   0  0  0  0  0  0  0  0  0  0  0  0
   -2.6205   -0.1877    2.5074 O   0  0  0  0  0  0  0  0  0  0  0  0
   -0.8562    2.0001    0.2704 C   0  0  0  0  0  0  0  0  0  0  0  0
   -1.6991    2.7353   -0.7954 C   0  0  0  0  0  0  0  0  0  0  0  0
   -1.2566    2.5202   -2.0298 O   0  0  0  0  0  0  0  0  0  0  0  0
   -2.6581    3.4073   -0.5402 O   0  0  0  0  0  0  0  0  0  0  0  0
    0.3067    1.3790   -0.3095 N   0  0  0  0  0  0  0  0  0  0  0  0
    1.4150    2.1191   -0.5448 C   0  0  0  0  0  0  0  0  0  0  0  0
    2.5287    1.4069   -1.2529 C   0  0  0  0  0  0  0  0  0  0  0  0
    2.3794    1.1095   -2.6024 C   0  0  0  0  0  0  0  0  0  0  0  0
    3.4051    0.5065   -3.3070 C   0  0  0  0  0  0  0  0  0  0  0  0
    4.5915    0.1866   -2.6687 C   0  0  0  0  0  0  0  0  0  0  0  0
    4.7633    0.4997   -1.3330 C   0  0  0  0  0  0  0  0  0  0  0  0
    3.7402    1.1212   -0.6287 C   0  0  0  0  0  0  0  0  0  0  0  0
    3.9994    1.5181    0.7995 C   0  0  0  0  0  0  0  0  0  0  0  0
    4.5687    2.7328    0.8796 F   0  0  0  0  0  0  0  0  0  0  0  0
    4.8563    0.6747    1.4064 F   0  0  0  0  0  0  0  0  0  0  0  0
    2.9086    1.5533    1.5713 F   0  0  0  0  0  0  0  0  0  0  0  0
    1.4799    3.2912   -0.2398 O   0  0  0  0  0  0  0  0  0  0  0  0
    1.2260   -1.6728   -2.4331 H   0  0  0  0  0  0  0  0  0  0  0  0
    3.1507   -3.1463   -2.0344 H   0  0  0  0  0  0  0  0  0  0  0  0
    4.8972   -4.0045   -0.5157 H   0  0  0  0  0  0  0  0  0  0  0  0
    5.9023   -4.0852    1.7311 H   0  0  0  0  0  0  0  0  0  0  0  0
    4.9399   -2.7655    3.5722 H   0  0  0  0  0  0  0  0  0  0  0  0
    2.9632   -1.3433    3.1807 H   0  0  0  0  0  0  0  0  0  0  0  0
    1.2833   -0.4414    1.6552 H   0  0  0  0  0  0  0  0  0  0  0  0
   -0.2309   -0.0267   -1.7641 H   0  0  0  0  0  0  0  0  0  0  0  0
   -1.0537   -1.0978    0.8809 H   0  0  0  0  0  0  0  0  0  0  0  0
   -1.3161   -2.6489   -1.1812 H   0  0  0  0  0  0  0  0  0  0  0  0
   -2.1401   -4.4133   -2.6814 H   0  0  0  0  0  0  0  0  0  0  0  0
   -3.8774   -5.2707   -4.2043 H   0  0  0  0  0  0  0  0  0  0  0  0
   -5.9000   -3.9417   -4.6539 H   0  0  0  0  0  0  0  0  0  0  0  0
   -6.2067   -1.7445   -3.5849 H   0  0  0  0  0  0  0  0  0  0  0  0
   -5.3794    0.0162   -2.0668 H   0  0  0  0  0  0  0  0  0  0  0  0
   -3.6567    0.8652   -0.5451 H   0  0  0  0  0  0  0  0  0  0  0  0
   -1.0624    3.9484    5.3294 H   0  0  0  0  0  0  0  0  0  0  0  0
   -2.8564    5.4933    4.6362 H   0  0  0  0  0  0  0  0  0  0  0  0
   -4.3281    4.8986    2.7423 H   0  0  0  0  0  0  0  0  0  0  0  0
   -3.9999    2.7783    1.5444 H   0  0  0  0  0  0  0  0  0  0  0  0
   -0.5647    2.7403    1.0274 H   0  0  0  0  0  0  0  0  0  0  0  0
   -1.7918    3.0114   -2.6755 H   0  0  0  0  0  0  0  0  0  0  0  0
    1.4536    1.3654   -3.0956 H   0  0  0  0  0  0  0  0  0  0  0  0
    3.2772    0.2834   -4.3554 H   0  0  0  0  0  0  0  0  0  0  0  0
    5.3892   -0.2952   -3.2120 H   0  0  0  0  0  0  0  0  0  0  0  0
    5.6890    0.2663   -0.8301 H   0  0  0  0  0  0  0  0  0  0  0  0
  1  2  2  0  0  0  0
  2  3  4  0  0  0  0
  3  4  4  0  0  0  0
  4  5  2  0  0  0  0
  5  6  4  0  0  0  0
  6  7  2  0  0  0  0
  3  8  4  0  0  0  0
  7  8  4  0  0  0  0
  8  9  4  0  0  0  0
  1 10  4  0  0  0  0
  9 10  2  0  0  0  0
 10 11  1  0  0  0  0
 11 12  1  0  0  0  0
 12 13  1  0  0  0  0
 13 14  2  0  0  0  0
 14 15  4  0  0  0  0
 15 16  4  0  0  0  0
 16 17  2  0  0  0  0
 17 18  4  0  0  0  0
 18 19  2  0  0  0  0
 15 20  4  0  0  0  0
 19 20  4  0  0  0  0
 20 21  4  0  0  0  0
 13 22  4  0  0  0  0
 21 22  2  0  0  0  0
 12 23  1  0  0  0  0
 23 24  1  0  0  0  0
 24 25  1  0  0  0  0
 25 26  4  0  0  0  0
 26 27  1  0  0  0  0
 27 28  1  0  0  0  0
 27 29  1  0  0  0  0
 27 30  1  0  0  0  0
 26 31  4  0  0  0  0
 31 32  4  0  0  0  0
 32 33  4  0  0  0  0
 25 34  4  0  0  0  0
 33 34  4  0  0  0  0
 24 35  2  0  0  0  0
 23 36  1  0  0  0  0
 36 37  1  0  0  0  0
 37 38  1  0  0  0  0
 37 39  2  0  0  0  0
 11 40  1  0  0  0  0
 36 40  1  0  0  0  0
 40 41  4  0  0  0  0
 41 42  1  0  0  0  0
 42 43  4  0  0  0  0
 43 44  4  0  0  0  0
 44 45  4  0  0  0  0
 45 46  4  0  0  0  0
 42 47  4  0  0  0  0
 46 47  4  0  0  0  0
 47 48  1  0  0  0  0
 48 49  1  0  0  0  0
 48 50  1  0  0  0  0
 48 51  1  0  0  0  0
 41 52  2  0  0  0  0
  1 53  1  0  0  0  0
  2 54  1  0  0  0  0
  4 55  1  0  0  0  0
  5 56  1  0  0  0  0
  6 57  1  0  0  0  0
  7 58  1  0  0  0  0
  9 59  1  0  0  0  0
 11 60  1  0  0  0  0
 12 61  1  0  0  0  0
 14 62  1  0  0  0  0
 16 63  1  0  0  0  0
 17 64  1  0  0  0  0
 18 65  1  0  0  0  0
 19 66  1  0  0  0  0
 21 67  1  0  0  0  0
 22 68  1  0  0  0  0
 31 69  1  0  0  0  0
 32 70  1  0  0  0  0
 33 71  1  0  0  0  0
 34 72  1  0  0  0  0
 36 73  1  0  0  0  0
 38 74  1  0  0  0  0
 43 75  1  0  0  0  0
 44 76  1  0  0  0  0
 45 77  1  0  0  0  0
 46 78  1  0  0  0  0
M  END
