72

C     -3.300686   -3.209931   -2.164419
C     -2.660543   -2.976402   -3.377136
C     -1.638251   -2.043275   -3.439756
C     -1.258284   -1.341974   -2.291898
C     -1.889081   -1.548912   -1.042201
C     -2.931121   -2.514246   -1.003568
C     -3.602963   -2.787134    0.194912
C     -3.264814   -2.126987    1.368088
C     -2.252851   -1.176647    1.351175
C     -1.555887   -0.860479    0.164056
C     -0.466789    0.196452    0.298222
C      0.968905   -0.400064    0.169936
C      1.571471   -0.720852    1.539606
C      2.239411    0.294170    2.254842
C      2.761528    0.058997    3.520701
C      2.617197   -1.191088    4.107034
C      1.964559   -2.231297    3.433226
C      1.436370   -2.018534    2.132824
C      0.818239   -3.133013    1.508752
C      0.708238   -4.376292    2.138196
C      1.223083   -4.553250    3.411616
C      1.847069   -3.486647    4.053255
N      1.714532    0.599565   -0.610321
C      2.956798    0.289618   -1.146402
C      3.644309    1.307636   -1.913986
C      3.354106    1.833525   -3.156738
C      4.292020    2.834234   -3.546288
C      5.278841    3.027111   -2.597940
C      6.407176    4.003088   -2.617532
S      5.092153    1.961426   -1.274077
O      3.457364   -0.817792   -0.958336
C      0.872880    1.736636   -0.950178
C      1.267183    2.982555   -0.090312
O      0.329112    3.369445    0.805990
O      2.331272    3.581269   -0.118956
N     -0.481395    1.286854   -0.680070
C     -1.518864    2.117693   -1.078092
C     -2.841872    1.883604   -0.543880
C     -3.929441    1.327463   -1.182714
C     -5.079295    1.282475   -0.342629
C     -4.848386    1.862538    0.888319
C     -5.809935    2.039028    2.012556
S     -3.242875    2.439580    1.021819
O     -1.299257    3.017634   -1.892206
H     -4.100490   -3.947643   -2.129667
H     -2.958744   -3.527419   -4.262427
H     -1.132902   -1.852011   -4.380726
H     -0.453072   -0.624573   -2.405736
H     -4.402107   -3.524695    0.225333
H     -3.789222   -2.344396    2.291628
H     -2.001442   -0.675562    2.285111
H     -0.574086    0.697550    1.270556
H      0.984316   -1.295168   -0.458229
H      2.379807    1.283839    1.826118
H      3.288809    0.848122    4.048378
H      3.040199   -1.358426    5.095309
H      0.411784   -3.066101    0.504610
H      0.230677   -5.205106    1.620125
H      1.148510   -5.517975    3.904620
H      2.256465   -3.648821    5.047607
H      2.513220    1.520763   -3.760225
H      4.243539    3.390096   -4.474857
H      6.800588    4.122084   -3.632680
H      6.063830    4.978257   -2.260170
H      7.237746    3.683272   -1.978765
H      0.956508    2.007592   -2.004063
H      0.714402    4.174418    1.213799
H     -3.896473    0.945183   -2.196903
H     -6.032234    0.870326   -0.645573
H     -6.500874    1.190166    2.058435
H     -5.308885    2.108619    2.983171
H     -6.401094    2.949829    1.859729
