92

C      4.898596   -3.403445   -2.312919
C      4.884547   -2.845232   -3.587798
C      3.862765   -1.972320   -3.938392
C      2.853346   -1.659510   -3.016301
C      2.829727   -2.220063   -1.715028
C      3.889854   -3.105005   -1.378780
C      3.939124   -3.691002   -0.110340
C      2.964156   -3.412091    0.842710
C      1.909801   -2.558944    0.531161
C      1.812186   -1.949121   -0.737933
C      0.653100   -1.005082   -1.046782
C     -0.595473   -0.925915   -0.125550
C     -1.511782   -2.144648   -0.074629
C     -1.729155   -2.907298   -1.244339
C     -2.561929   -4.023994   -1.242655
C     -3.214654   -4.399486   -0.075401
C     -3.048920   -3.659483    1.100728
C     -2.198111   -2.518499    1.127367
C     -2.107158   -1.826363    2.359945
C     -2.807359   -2.237049    3.498272
C     -3.630550   -3.350004    3.438104
C     -3.748956   -4.058261    2.247319
N     -1.283971    0.273588   -0.638042
C     -2.101035    0.944998    0.263962
C     -3.578518    0.740634    0.144046
C     -4.159434    0.031395   -0.915111
C     -5.541583   -0.118108   -0.984144
C     -6.359615    0.444941    0.003524
C     -5.801504    1.164419    1.068328
C     -6.648027    1.749713    2.109171
C     -6.660328    1.205189    3.402433
C     -7.441722    1.773980    4.411356
C     -8.210450    2.906174    4.141752
C     -8.221310    3.454334    2.858414
C     -7.444852    2.879913    1.850286
C     -4.405783    1.307977    1.126978
O     -1.626121    1.660493    1.135654
C     -0.273896    1.119241   -1.292058
C     -0.631123    1.361386   -2.789702
O     -1.919796    1.111509   -3.121326
O      0.127721    1.760512   -3.660746
N      1.005141    0.414967   -1.221055
C      1.905490    0.954584   -0.294031
C      2.844334    2.003314   -0.789370
C      4.176532    1.923831   -0.348503
C      5.125142    2.882950   -0.731555
C      6.511887    2.793726   -0.271383
C      6.954030    3.547278    0.825210
C      8.272426    3.450236    1.273168
C      9.169158    2.605115    0.622904
C      8.744758    1.840292   -0.463721
C      7.425069    1.936016   -0.909701
C      4.716901    3.930070   -1.566061
C      3.395236    4.014155   -2.007105
C      2.462547    3.051156   -1.622234
O      2.075681    0.492586    0.836233
H      5.715020   -4.075966   -2.042163
H      5.667726   -3.085749   -4.301909
H      3.839766   -1.531263   -4.931351
H      2.086666   -0.959168   -3.336815
H      4.758836   -4.354279    0.161728
H      3.026489   -3.848172    1.836929
H      1.185387   -2.349636    1.319844
H      0.300250   -1.303869   -2.040371
H     -0.244345   -0.689172    0.881472
H     -1.261028   -2.650600   -2.191160
H     -2.697433   -4.609695   -2.148576
H     -3.858469   -5.277685   -0.096244
H     -1.480213   -0.947507    2.472049
H     -2.709562   -1.677346    4.425017
H     -4.188619   -3.672709    4.312372
H     -4.402712   -4.927419    2.216758
H     -3.536865   -0.406804   -1.689495
H     -5.979506   -0.680432   -1.799080
H     -7.434487    0.310749   -0.065000
H     -6.064353    0.325420    3.623349
H     -7.449974    1.332696    5.409607
H     -8.819052    3.347426    4.927211
H     -8.839826    4.325794    2.645354
H     -7.457125    3.323620    0.857784
H     -3.957695    1.869545    1.948709
H     -0.224945    2.101973   -0.810499
H     -1.951752    1.303989   -4.081151
H      4.477555    1.103486    0.298355
H      6.263246    4.212589    1.341492
H      8.599806    4.032175    2.128383
H     10.192883    2.519811    0.972326
H      9.435714    1.169458   -0.967304
H      7.104739    1.342845   -1.761641
H      5.429218    4.689276   -1.875467
H      3.083969    4.837295   -2.652150
H      1.444550    3.159572   -1.974691
