90

C     -1.593432    2.889885    0.169337
C     -1.949400    4.057132    0.852280
C     -1.823820    4.136740    2.248402
C     -2.213347    5.284997    2.958657
C     -2.091607    5.345077    4.348609
C     -1.572714    4.261446    5.045028
C     -1.178285    3.111689    4.355356
C     -1.302964    3.032540    2.958895
C     -0.935627    1.869752    2.257063
C     -1.101095    1.774766    0.866165
C     -0.775596    0.503640    0.102523
C      0.736960    0.360555   -0.217926
C      1.068823    0.994815   -1.556897
C      1.769354    2.215311   -1.577775
C      2.081824    2.864757   -2.784176
C      2.785923    4.080212   -2.802513
C      3.097608    4.706952   -4.013036
C      2.707115    4.130885   -5.218511
C      2.006921    2.922852   -5.214028
C      1.686145    2.278110   -4.004811
C      0.989125    1.057659   -3.984614
C      0.678298    0.426052   -2.775154
N      0.978751   -1.081858   -0.097922
C      2.200057   -1.650125   -0.428223
C      2.482726   -3.042818   -0.001537
C      3.532665   -3.332536    0.904866
C      4.466926   -2.248242    1.439888
C      5.772178   -2.232269    0.637953
C      4.756330   -2.365167    2.941343
C      3.734854   -4.677127    1.259536
C      2.934605   -5.692288    0.728791
C      1.924949   -5.389848   -0.181979
C      1.708230   -4.069464   -0.560621
O      3.082578   -1.068291   -1.049800
C     -0.007396   -1.673889    0.810094
C      0.576072   -1.819708    2.238862
O      0.325259   -3.030861    2.785037
O      1.254831   -1.001187    2.854646
N     -1.117367   -0.734194    0.819470
C     -2.377658   -1.248303    1.058746
C     -3.540606   -0.528137    0.498262
C     -4.137419    0.471835    1.275358
C     -5.228691    1.177178    0.775405
C     -5.746506    0.854973   -0.479552
C     -5.180487   -0.173626   -1.236056
C     -4.062933   -0.885482   -0.765281
C     -3.486742   -2.042074   -1.573984
C     -4.411077   -3.261269   -1.499574
C     -3.181803   -1.656048   -3.026199
O     -2.567067   -2.321111    1.623793
H     -1.716442    2.857548   -0.912589
H     -2.339512    4.898236    0.284640
H     -2.631938    6.138788    2.431360
H     -2.402636    6.240507    4.881226
H     -1.477186    4.300374    6.128579
H     -0.777381    2.270184    4.916366
H     -0.540423    1.021144    2.813108
H     -1.370681    0.483008   -0.819968
H      1.357682    0.814558    0.566886
H      2.083410    2.670914   -0.638793
H      3.105099    4.545624   -1.871888
H      3.645363    5.646823   -4.009569
H      2.953289    4.614033   -6.161958
H      1.716572    2.482434   -6.165723
H      0.686305    0.584193   -4.916254
H      0.151716   -0.526467   -2.795227
H      3.990669   -1.269827    1.323363
H      6.432060   -1.433208    0.992570
H      6.316278   -3.178194    0.731581
H      5.585068   -2.064615   -0.429775
H      5.272452   -1.464821    3.303309
H      3.828283   -2.467432    3.507501
H      5.393976   -3.223043    3.179864
H      4.543205   -4.952692    1.933588
H      3.106878   -6.727481    1.017016
H      1.313399   -6.186379   -0.600368
H      0.938152   -3.844538   -1.296767
H     -0.325257   -2.651158    0.428189
H      0.823137   -3.037183    3.627087
H     -3.746481    0.709961    2.262758
H     -5.680698    1.969543    1.368228
H     -6.611908    1.398362   -0.857749
H     -5.631800   -0.428696   -2.195112
H     -2.523583   -2.347823   -1.151266
H     -5.367636   -3.080841   -2.004634
H     -4.629164   -3.525349   -0.456864
H     -3.945530   -4.135740   -1.968935
H     -2.669511   -2.479350   -3.540201
H     -2.525731   -0.779166   -3.067509
H     -4.084964   -1.426116   -3.600266
