78

O      2.382264    0.021325   -2.981383
C      2.424029    0.150174   -1.761675
C      3.488141    0.988132   -1.179798
C      4.563806    0.377207   -0.531481
C      5.532054    1.175315    0.078451
C      5.437420    2.574862    0.045187
C      6.441136    3.478207    0.745791
C      7.103093    2.849305    1.978439
C      7.500832    3.967824   -0.239558
C      4.372148    3.164570   -0.661873
C      3.402424    2.377050   -1.283879
N      1.540781   -0.450571   -0.880174
C      1.084666    0.213460    0.344528
C      1.840218   -0.358419    1.578996
O      2.771712    0.490023    2.066362
O      1.705550   -1.470030    2.072223
N     -0.340348   -0.093712    0.404438
C     -1.064503    0.551520    1.387827
C     -2.530807    0.687411    1.260127
C     -3.337066    0.607403    2.396774
C     -4.714252    0.803665    2.286312
C     -5.306713    1.087861    1.041795
C     -6.811397    1.246498    0.940975
C     -7.425427    0.069162    0.177362
C     -7.212543    2.583256    0.307634
C     -4.480835    1.201681   -0.082890
C     -3.103045    1.035709    0.032554
O     -0.518354    1.159233    2.309968
C     -0.547009   -1.418787   -0.233057
C     -1.950971   -1.836991   -0.613554
C     -2.513508   -1.617866   -1.881084
C     -3.825181   -2.006874   -2.165850
C     -4.600509   -2.612495   -1.181234
C     -4.057327   -2.859393    0.075454
C     -2.743571   -2.479341    0.356458
C      0.500785   -1.357843   -1.386184
C      1.050033   -2.708036   -1.817227
C      0.746178   -3.205342   -3.096702
C      1.261032   -4.430203   -3.532406
C      2.089800   -5.174371   -2.696354
C      2.397799   -4.700258   -1.424040
C      1.882105   -3.476508   -0.986475
H      4.637262   -0.707580   -0.480012
H      6.350738    0.678990    0.589456
H      5.892213    4.351275    1.116963
H      6.361668    2.406907    2.655937
H      7.807020    2.057775    1.690955
H      7.659724    3.608909    2.540978
H      8.040959    3.135319   -0.707179
H      8.229900    4.618784    0.256359
H      7.034638    4.540970   -1.050630
H      4.287730    4.248274   -0.725862
H      2.573701    2.843614   -1.811367
H      1.209735    1.299105    0.298435
H      3.154515    0.020601    2.837828
H     -2.894781    0.406641    3.372111
H     -5.328152    0.746022    3.182426
H     -7.232020    1.232789    1.954693
H     -7.078918    0.029358   -0.863266
H     -8.519102    0.140854    0.164992
H     -7.159226   -0.880891    0.652920
H     -8.297775    2.728786    0.356750
H     -6.923457    2.635717   -0.743879
H     -6.733831    3.423856    0.825037
H     -4.900832    1.418349   -1.060824
H     -2.483366    1.162583   -0.850621
H     -0.205288   -2.148251    0.514759
H     -1.960264   -1.120306   -2.675316
H     -4.251312   -1.808402   -3.145315
H     -5.629825   -2.884571   -1.393881
H     -4.666155   -3.325244    0.852191
H     -2.342014   -2.672049    1.349768
H      0.080253   -0.841966   -2.260948
H      0.119948   -2.629733   -3.778899
H      1.028250   -4.796270   -4.529119
H      2.501671   -6.120536   -3.039919
H      3.051784   -5.276835   -0.776760
H      2.149970   -3.126656    0.007842
