80

C     -2.800043   -2.397835   -0.745103
C     -3.799810   -2.618406   -1.693549
C     -3.870753   -1.817747   -2.829775
C     -2.943697   -0.795551   -3.016003
C     -1.945416   -0.570704   -2.065284
C     -1.860563   -1.365718   -0.913544
C     -0.775852   -1.172447    0.129774
C      0.612054   -1.680573   -0.348553
C      0.837470   -3.111122    0.118079
C      1.198278   -3.414899    1.442051
C      1.366869   -4.740816    1.847034
C      1.168814   -5.778310    0.939367
C      0.803462   -5.492705   -0.374526
C      0.637940   -4.168346   -0.783128
N      1.552863   -0.711197    0.215936
C      2.914984   -0.813714   -0.008845
C      3.823400    0.112343    0.703629
C      3.737613    0.273122    2.088191
C      4.622183    1.131571    2.735487
C      5.594707    1.815903    2.000237
C      5.711679    1.648461    0.609071
C      6.743308    2.365433   -0.158371
C      6.868360    3.762322   -0.071015
C      7.839004    4.446371   -0.807526
C      8.703922    3.743361   -1.642419
C      8.599069    2.358249   -1.741425
C      7.626142    1.675604   -1.006632
C      4.816092    0.774851   -0.027570
O      3.415843   -1.640120   -0.765139
C      0.876787    0.550986    0.504668
C      1.116162    1.579433   -0.635229
O      1.883026    2.624115   -0.249870
O      0.748415    1.491324   -1.797774
N     -0.540063    0.217775    0.539447
C     -1.405392    1.075492    1.182094
C     -2.781395    0.622438    1.453868
C     -3.831324    1.123556    0.677192
C     -5.151644    0.706707    0.913435
C     -6.268695    1.209537    0.091940
C     -7.450137    1.690853    0.683717
C     -8.509712    2.163890   -0.095736
C     -8.406164    2.166420   -1.484980
C     -7.246181    1.695022   -2.093192
C     -6.188570    1.222673   -1.311097
C     -5.375315   -0.207927    1.960356
C     -4.326300   -0.683906    2.753933
C     -3.023409   -0.263618    2.505166
O     -1.076157    2.199650    1.548783
H     -2.761881   -3.041470    0.132071
H     -4.521683   -3.417022   -1.546128
H     -4.648277   -1.989906   -3.569085
H     -2.993475   -0.169508   -3.903199
H     -1.237585    0.234091   -2.241683
H     -1.074836   -1.691460    1.050109
H      0.723893   -1.617586   -1.439889
H      1.362231   -2.621423    2.166646
H      1.659738   -4.963793    2.870270
H      1.307540   -6.810108    1.252024
H      0.655727   -6.301194   -1.085584
H      0.358431   -3.965755   -1.816139
H      3.002344   -0.277744    2.667089
H      4.567033    1.262162    3.813228
H      6.284719    2.471796    2.528688
H      6.195614    4.332598    0.566960
H      7.916515    5.527420   -0.728852
H      9.459440    4.274258   -2.215399
H      9.273499    1.805885   -2.390223
H      7.566156    0.592281   -1.094485
H      4.879698    0.612836   -1.102256
H      1.193221    0.966875    1.464888
H      1.974592    3.178831   -1.052365
H     -3.612380    1.840552   -0.111426
H     -7.550382    1.713193    1.767085
H     -9.412264    2.535629    0.382936
H     -9.228219    2.536203   -2.091746
H     -7.159749    1.694236   -3.176921
H     -5.297276    0.848854   -1.810312
H     -6.384077   -0.563865    2.163074
H     -4.532574   -1.378209    3.563867
H     -2.207585   -0.620457    3.127441
