
  xtb     03162221523D
 xtb: 6.3.3 (4ae9cef)
 72 78  0     0  0            999 V2000
    2.2449   -4.7987    0.2181 C   0  0  0  0  0  0  0  0  0  0  0  0
    1.5868   -5.0844   -0.9436 C   0  0  0  0  0  0  0  0  0  0  0  0
    1.0042   -4.0477   -1.6851 C   0  0  0  0  0  0  0  0  0  0  0  0
    1.0864   -2.7523   -1.2564 C   0  0  0  0  0  0  0  0  0  0  0  0
    1.7462   -2.4186   -0.0529 C   0  0  0  0  0  0  0  0  0  0  0  0
    2.3380   -3.4742    0.6947 C   0  0  0  0  0  0  0  0  0  0  0  0
    2.9967   -3.1875    1.9082 C   0  0  0  0  0  0  0  0  0  0  0  0
    3.0482   -1.9095    2.3835 C   0  0  0  0  0  0  0  0  0  0  0  0
    2.4515   -0.8671    1.6625 C   0  0  0  0  0  0  0  0  0  0  0  0
    1.8308   -1.0960    0.4622 C   0  0  0  0  0  0  0  0  0  0  0  0
    1.1644    0.0424   -0.2731 C   0  0  0  0  0  0  0  0  0  0  0  0
   -0.3226    0.1565    0.1316 C   0  0  0  0  0  0  0  0  0  0  0  0
   -1.2552   -0.3160   -0.9543 C   0  0  0  0  0  0  0  0  0  0  0  0
   -1.3616    0.4501   -2.0898 C   0  0  0  0  0  0  0  0  0  0  0  0
   -2.2373    0.1044   -3.1245 C   0  0  0  0  0  0  0  0  0  0  0  0
   -3.0141   -1.0127   -3.0112 C   0  0  0  0  0  0  0  0  0  0  0  0
   -2.9160   -1.8443   -1.8775 C   0  0  0  0  0  0  0  0  0  0  0  0
   -2.0077   -1.5142   -0.8339 C   0  0  0  0  0  0  0  0  0  0  0  0
   -1.8995   -2.4056    0.2560 C   0  0  0  0  0  0  0  0  0  0  0  0
   -2.6655   -3.5350    0.3239 C   0  0  0  0  0  0  0  0  0  0  0  0
   -3.5842   -3.8391   -0.6905 C   0  0  0  0  0  0  0  0  0  0  0  0
   -3.7007   -3.0117   -1.7696 C   0  0  0  0  0  0  0  0  0  0  0  0
   -0.5055    1.5726    0.4092 N   0  0  0  0  0  0  0  0  0  0  0  0
   -1.6520    2.1770    0.8062 C   0  0  0  0  0  0  0  0  0  0  0  0
   -2.8820    1.3240    0.7097 C   0  0  0  0  0  0  0  0  0  0  0  0
   -3.1677    0.3649    1.6745 C   0  0  0  0  0  0  0  0  0  0  0  0
   -2.0998    0.1720    3.0245 Cl  0  0  0  0  0  0  0  0  0  0  0  0
   -4.2996   -0.4279    1.5736 C   0  0  0  0  0  0  0  0  0  0  0  0
   -5.1602   -0.2530    0.5054 C   0  0  0  0  0  0  0  0  0  0  0  0
   -4.9083    0.7270   -0.4406 C   0  0  0  0  0  0  0  0  0  0  0  0
   -3.7800    1.5180   -0.3324 C   0  0  0  0  0  0  0  0  0  0  0  0
   -1.6677    3.3382    1.1603 O   0  0  0  0  0  0  0  0  0  0  0  0
    0.7519    2.2704    0.5591 C   0  0  0  0  0  0  0  0  0  0  0  0
    0.9761    2.5879    2.0560 C   0  0  0  0  0  0  0  0  0  0  0  0
    1.3136    3.8562    2.2337 O   0  0  0  0  0  0  0  0  0  0  0  0
    0.8475    1.7858    2.9359 O   0  0  0  0  0  0  0  0  0  0  0  0
    1.7249    1.3545    0.0266 N   0  0  0  0  0  0  0  0  0  0  0  0
    2.9425    1.6879   -0.4732 C   0  0  0  0  0  0  0  0  0  0  0  0
    3.3489    3.1160   -0.2497 C   0  0  0  0  0  0  0  0  0  0  0  0
    3.1655    4.0524   -1.2594 C   0  0  0  0  0  0  0  0  0  0  0  0
    3.5846    5.3595   -1.0880 C   0  0  0  0  0  0  0  0  0  0  0  0
    4.2011    5.7392    0.0924 C   0  0  0  0  0  0  0  0  0  0  0  0
    4.4024    4.8160    1.1030 C   0  0  0  0  0  0  0  0  0  0  0  0
    3.9761    3.5102    0.9253 C   0  0  0  0  0  0  0  0  0  0  0  0
    4.2272    2.3472    2.1804 Cl  0  0  0  0  0  0  0  0  0  0  0  0
    3.6354    0.8936   -1.0690 O   0  0  0  0  0  0  0  0  0  0  0  0
    2.7036   -5.5868    0.7985 H   0  0  0  0  0  0  0  0  0  0  0  0
    1.5140   -6.1018   -1.2988 H   0  0  0  0  0  0  0  0  0  0  0  0
    0.4865   -4.2771   -2.6050 H   0  0  0  0  0  0  0  0  0  0  0  0
    0.6279   -1.9813   -1.8549 H   0  0  0  0  0  0  0  0  0  0  0  0
    3.4494   -4.0007    2.4572 H   0  0  0  0  0  0  0  0  0  0  0  0
    3.5407   -1.6870    3.3182 H   0  0  0  0  0  0  0  0  0  0  0  0
    2.4793    0.1291    2.0735 H   0  0  0  0  0  0  0  0  0  0  0  0
    1.2751   -0.1113   -1.3533 H   0  0  0  0  0  0  0  0  0  0  0  0
   -0.4756   -0.4042    1.0583 H   0  0  0  0  0  0  0  0  0  0  0  0
   -0.7714    1.3514   -2.1792 H   0  0  0  0  0  0  0  0  0  0  0  0
   -2.2974    0.7320   -4.0010 H   0  0  0  0  0  0  0  0  0  0  0  0
   -3.7081   -1.2831   -3.7937 H   0  0  0  0  0  0  0  0  0  0  0  0
   -1.1924   -2.2135    1.0467 H   0  0  0  0  0  0  0  0  0  0  0  0
   -2.5622   -4.2047    1.1645 H   0  0  0  0  0  0  0  0  0  0  0  0
   -4.1863   -4.7325   -0.6155 H   0  0  0  0  0  0  0  0  0  0  0  0
   -4.3921   -3.2415   -2.5678 H   0  0  0  0  0  0  0  0  0  0  0  0
   -4.4968   -1.1736    2.3268 H   0  0  0  0  0  0  0  0  0  0  0  0
   -6.0359   -0.8777    0.4194 H   0  0  0  0  0  0  0  0  0  0  0  0
   -5.5909    0.8755   -1.2629 H   0  0  0  0  0  0  0  0  0  0  0  0
   -3.5763    2.2864   -1.0624 H   0  0  0  0  0  0  0  0  0  0  0  0
    0.7368    3.2302    0.0206 H   0  0  0  0  0  0  0  0  0  0  0  0
    1.4106    4.0627    3.1783 H   0  0  0  0  0  0  0  0  0  0  0  0
    2.6969    3.7444   -2.1825 H   0  0  0  0  0  0  0  0  0  0  0  0
    3.4346    6.0797   -1.8775 H   0  0  0  0  0  0  0  0  0  0  0  0
    4.5326    6.7572    0.2277 H   0  0  0  0  0  0  0  0  0  0  0  0
    4.8885    5.0995    2.0229 H   0  0  0  0  0  0  0  0  0  0  0  0
  1  2  2  0  0  0  0
  2  3  4  0  0  0  0
  3  4  2  0  0  0  0
  4  5  4  0  0  0  0
  1  6  4  0  0  0  0
  5  6  4  0  0  0  0
  6  7  4  0  0  0  0
  7  8  2  0  0  0  0
  8  9  4  0  0  0  0
  5 10  4  0  0  0  0
  9 10  2  0  0  0  0
 10 11  1  0  0  0  0
 11 12  1  0  0  0  0
 12 13  1  0  0  0  0
 13 14  2  0  0  0  0
 14 15  4  0  0  0  0
 15 16  2  0  0  0  0
 16 17  4  0  0  0  0
 13 18  4  0  0  0  0
 17 18  4  0  0  0  0
 18 19  4  0  0  0  0
 19 20  2  0  0  0  0
 20 21  4  0  0  0  0
 17 22  4  0  0  0  0
 21 22  2  0  0  0  0
 12 23  1  0  0  0  0
 23 24  4  0  0  0  0
 24 25  1  0  0  0  0
 25 26  4  0  0  0  0
 26 27  1  0  0  0  0
 26 28  4  0  0  0  0
 28 29  4  0  0  0  0
 29 30  4  0  0  0  0
 25 31  4  0  0  0  0
 30 31  4  0  0  0  0
 24 32  2  0  0  0  0
 23 33  1  0  0  0  0
 33 34  1  0  0  0  0
 34 35  1  0  0  0  0
 34 36  2  0  0  0  0
 11 37  1  0  0  0  0
 33 37  1  0  0  0  0
 37 38  4  0  0  0  0
 38 39  1  0  0  0  0
 39 40  4  0  0  0  0
 40 41  4  0  0  0  0
 41 42  4  0  0  0  0
 42 43  4  0  0  0  0
 39 44  4  0  0  0  0
 43 44  4  0  0  0  0
 44 45  1  0  0  0  0
 38 46  2  0  0  0  0
  1 47  1  0  0  0  0
  2 48  1  0  0  0  0
  3 49  1  0  0  0  0
  4 50  1  0  0  0  0
  7 51  1  0  0  0  0
  8 52  1  0  0  0  0
  9 53  1  0  0  0  0
 11 54  1  0  0  0  0
 12 55  1  0  0  0  0
 14 56  1  0  0  0  0
 15 57  1  0  0  0  0
 16 58  1  0  0  0  0
 19 59  1  0  0  0  0
 20 60  1  0  0  0  0
 21 61  1  0  0  0  0
 22 62  1  0  0  0  0
 28 63  1  0  0  0  0
 29 64  1  0  0  0  0
 30 65  1  0  0  0  0
 31 66  1  0  0  0  0
 33 67  1  0  0  0  0
 35 68  1  0  0  0  0
 40 69  1  0  0  0  0
 41 70  1  0  0  0  0
 42 71  1  0  0  0  0
 43 72  1  0  0  0  0
M  END
