62

C     -0.701801   -1.917466    3.085651
O     -1.177052   -3.023992    2.431246
C     -0.380638   -4.183932    2.666692
C     -0.583935   -1.928042    4.480135
C     -0.158554   -0.787082    5.155972
C      0.139106    0.367609    4.441615
C     -0.000257    0.387147    3.050962
C     -0.434393   -0.751615    2.341018
C     -0.603363   -0.749656    0.819301
C     -1.080931    0.604121    0.217315
C     -2.146742    0.399129   -0.860608
C     -1.840910   -0.228733   -2.084271
C     -2.813027   -0.378324   -3.075459
C     -4.110129    0.080319   -2.857925
C     -4.440585    0.676320   -1.643365
C     -3.463968    0.849736   -0.655947
O     -3.779388    1.395464    0.562087
C     -4.407164    2.672866    0.446240
N      0.136895    1.214915   -0.343293
C      0.113162    2.500824   -0.857539
C      1.210336    2.976364   -1.685771
C      1.505365    4.261056   -2.107100
C      2.663671    4.175829   -2.918166
C      2.999700    2.842339   -2.970927
Cl     4.319873    2.139246   -3.816555
O      2.115750    2.111635   -2.238390
O     -0.844226    3.236935   -0.613629
C      1.252509    0.280351   -0.316715
C      2.367415    0.781118    0.654616
O      2.912101   -0.176953    1.438844
O      2.798833    1.923272    0.746138
N      0.681561   -0.981170    0.139795
C      1.019050   -2.229095   -0.366924
C      2.204394   -2.315521   -1.194202
C      3.554358   -2.201782   -0.921964
C      4.232116   -2.422847   -2.148002
C      3.261684   -2.662199   -3.096028
Cl     3.511376   -3.029419   -4.758505
O      2.028716   -2.588661   -2.523738
O      0.316896   -3.219247   -0.177936
H     -0.581838   -4.898970    1.860932
H     -0.662478   -4.656279    3.612151
H      0.692283   -3.954825    2.660852
H     -0.849043   -2.816268    5.047633
H     -0.077308   -0.795297    6.239589
H      0.451786    1.268242    4.969906
H      0.224003    1.321302    2.541400
H     -1.317091   -1.537154    0.551805
H     -1.465627    1.286728    0.982081
H     -0.840480   -0.609798   -2.283127
H     -2.555203   -0.857473   -4.015761
H     -4.869273   -0.038912   -3.627707
H     -5.463014    1.010087   -1.481059
H     -5.481309    2.554489    0.279837
H     -3.960811    3.279041   -0.351474
H     -4.270013    3.202065    1.394190
H      0.944576    5.149039   -1.840717
H      3.188629    4.988793   -3.404296
H      1.675159    0.147995   -1.311224
H      3.545450    0.314443    2.001827
H      3.995198   -2.025629    0.049054
H      5.298600   -2.432482   -2.320560
