
  xtb     03172200303D
 xtb: 6.3.3 (4ae9cef)
 92100  0     0  0            999 V2000
   -3.3606   -0.1358   -2.8767 C   0  0  0  0  0  0  0  0  0  0  0  0
   -3.1247   -1.4799   -2.9269 C   0  0  0  0  0  0  0  0  0  0  0  0
   -2.2794   -2.0712   -1.9780 C   0  0  0  0  0  0  0  0  0  0  0  0
   -1.7022   -1.3203   -0.9920 C   0  0  0  0  0  0  0  0  0  0  0  0
   -1.9357    0.0697   -0.8955 C   0  0  0  0  0  0  0  0  0  0  0  0
   -2.7735    0.6690   -1.8773 C   0  0  0  0  0  0  0  0  0  0  0  0
   -3.0071    2.0584   -1.8491 C   0  0  0  0  0  0  0  0  0  0  0  0
   -2.4162    2.8399   -0.8999 C   0  0  0  0  0  0  0  0  0  0  0  0
   -1.6042    2.2549    0.0781 C   0  0  0  0  0  0  0  0  0  0  0  0
   -1.3849    0.9004    0.1192 C   0  0  0  0  0  0  0  0  0  0  0  0
   -0.5328    0.3159    1.2167 C   0  0  0  0  0  0  0  0  0  0  0  0
    0.9726    0.5392    0.9174 C   0  0  0  0  0  0  0  0  0  0  0  0
    1.5265   -0.5444    0.0279 C   0  0  0  0  0  0  0  0  0  0  0  0
    1.8208   -0.2089   -1.2704 C   0  0  0  0  0  0  0  0  0  0  0  0
    2.3284   -1.1472   -2.1756 C   0  0  0  0  0  0  0  0  0  0  0  0
    2.5476   -2.4312   -1.7712 C   0  0  0  0  0  0  0  0  0  0  0  0
    2.2394   -2.8304   -0.4551 C   0  0  0  0  0  0  0  0  0  0  0  0
    1.7021   -1.8868    0.4649 C   0  0  0  0  0  0  0  0  0  0  0  0
    1.3891   -2.3423    1.7658 C   0  0  0  0  0  0  0  0  0  0  0  0
    1.6102   -3.6399    2.1373 C   0  0  0  0  0  0  0  0  0  0  0  0
    2.1564   -4.5598    1.2321 C   0  0  0  0  0  0  0  0  0  0  0  0
    2.4594   -4.1598   -0.0379 C   0  0  0  0  0  0  0  0  0  0  0  0
    1.5699    0.6593    2.2385 N   0  0  0  0  0  0  0  0  0  0  0  0
    2.8424    0.3060    2.6040 C   0  0  0  0  0  0  0  0  0  0  0  0
    3.7973    0.1952    1.4653 C   0  0  0  0  0  0  0  0  0  0  0  0
    4.5350   -0.9689    1.2870 C   0  0  0  0  0  0  0  0  0  0  0  0
    5.3916   -1.0887    0.2114 C   0  0  0  0  0  0  0  0  0  0  0  0
    5.5466   -0.0411   -0.6933 C   0  0  0  0  0  0  0  0  0  0  0  0
    6.4223   -0.1781   -1.8657 C   0  0  0  0  0  0  0  0  0  0  0  0
    7.6767   -0.7727   -1.7578 C   0  0  0  0  0  0  0  0  0  0  0  0
    8.4969   -0.8872   -2.8651 C   0  0  0  0  0  0  0  0  0  0  0  0
    8.0733   -0.4189   -4.0977 C   0  0  0  0  0  0  0  0  0  0  0  0
    6.8241    0.1669   -4.2174 C   0  0  0  0  0  0  0  0  0  0  0  0
    6.0061    0.2900   -3.1100 C   0  0  0  0  0  0  0  0  0  0  0  0
    4.8543    1.1469   -0.4683 C   0  0  0  0  0  0  0  0  0  0  0  0
    3.9891    1.2661    0.5998 C   0  0  0  0  0  0  0  0  0  0  0  0
    3.1462    0.1315    3.7615 O   0  0  0  0  0  0  0  0  0  0  0  0
    0.5673    0.9488    3.2488 C   0  0  0  0  0  0  0  0  0  0  0  0
    0.8414    2.3417    3.8778 C   0  0  0  0  0  0  0  0  0  0  0  0
    0.6840    3.3491    3.0049 O   0  0  0  0  0  0  0  0  0  0  0  0
    1.2280    2.5070    4.9876 O   0  0  0  0  0  0  0  0  0  0  0  0
   -0.6898    0.9351    2.5230 N   0  0  0  0  0  0  0  0  0  0  0  0
   -1.8262    1.3314    3.1704 C   0  0  0  0  0  0  0  0  0  0  0  0
   -3.0992    1.1670    2.4155 C   0  0  0  0  0  0  0  0  0  0  0  0
   -3.8929    2.2910    2.2138 C   0  0  0  0  0  0  0  0  0  0  0  0
   -5.0339    2.2065    1.4428 C   0  0  0  0  0  0  0  0  0  0  0  0
   -5.4170    0.9948    0.8718 C   0  0  0  0  0  0  0  0  0  0  0  0
   -6.5872    0.9199   -0.0136 C   0  0  0  0  0  0  0  0  0  0  0  0
   -7.7568    1.6162    0.2814 C   0  0  0  0  0  0  0  0  0  0  0  0
   -8.8466    1.5498   -0.5668 C   0  0  0  0  0  0  0  0  0  0  0  0
   -8.7822    0.7949   -1.7261 C   0  0  0  0  0  0  0  0  0  0  0  0
   -7.6228    0.1006   -2.0294 C   0  0  0  0  0  0  0  0  0  0  0  0
   -6.5347    0.1579   -1.1788 C   0  0  0  0  0  0  0  0  0  0  0  0
   -4.6593   -0.1419    1.1457 C   0  0  0  0  0  0  0  0  0  0  0  0
   -3.5135   -0.0596    1.9108 C   0  0  0  0  0  0  0  0  0  0  0  0
   -1.7546    1.8434    4.2678 O   0  0  0  0  0  0  0  0  0  0  0  0
   -3.9995    0.3398   -3.6069 H   0  0  0  0  0  0  0  0  0  0  0  0
   -3.5780   -2.0905   -3.6934 H   0  0  0  0  0  0  0  0  0  0  0  0
   -2.0821   -3.1317   -2.0292 H   0  0  0  0  0  0  0  0  0  0  0  0
   -1.0445   -1.8145   -0.2947 H   0  0  0  0  0  0  0  0  0  0  0  0
   -3.6573    2.4907   -2.5951 H   0  0  0  0  0  0  0  0  0  0  0  0
   -2.5783    3.9066   -0.8816 H   0  0  0  0  0  0  0  0  0  0  0  0
   -1.1805    2.8971    0.8383 H   0  0  0  0  0  0  0  0  0  0  0  0
   -0.7234   -0.7580    1.3086 H   0  0  0  0  0  0  0  0  0  0  0  0
    1.0767    1.4964    0.3811 H   0  0  0  0  0  0  0  0  0  0  0  0
    1.6681    0.8073   -1.6052 H   0  0  0  0  0  0  0  0  0  0  0  0
    2.5530   -0.8416   -3.1859 H   0  0  0  0  0  0  0  0  0  0  0  0
    2.9583   -3.1623   -2.4518 H   0  0  0  0  0  0  0  0  0  0  0  0
    0.9767   -1.6665    2.4959 H   0  0  0  0  0  0  0  0  0  0  0  0
    1.3673   -3.9593    3.1396 H   0  0  0  0  0  0  0  0  0  0  0  0
    2.3319   -5.5779    1.5458 H   0  0  0  0  0  0  0  0  0  0  0  0
    2.8766   -4.8574   -0.7498 H   0  0  0  0  0  0  0  0  0  0  0  0
    4.4108   -1.7843    1.9837 H   0  0  0  0  0  0  0  0  0  0  0  0
    5.9300   -2.0118    0.0557 H   0  0  0  0  0  0  0  0  0  0  0  0
    8.0176   -1.1235   -0.7948 H   0  0  0  0  0  0  0  0  0  0  0  0
    9.4722   -1.3408   -2.7662 H   0  0  0  0  0  0  0  0  0  0  0  0
    8.7148   -0.5089   -4.9618 H   0  0  0  0  0  0  0  0  0  0  0  0
    6.4875    0.5301   -5.1777 H   0  0  0  0  0  0  0  0  0  0  0  0
    5.0267    0.7358   -3.2076 H   0  0  0  0  0  0  0  0  0  0  0  0
    5.0072    1.9852   -1.1320 H   0  0  0  0  0  0  0  0  0  0  0  0
    3.4680    2.1970    0.7716 H   0  0  0  0  0  0  0  0  0  0  0  0
    0.5973    0.2135    4.0691 H   0  0  0  0  0  0  0  0  0  0  0  0
    0.3185    3.0376    2.1635 H   0  0  0  0  0  0  0  0  0  0  0  0
   -3.5905    3.2324    2.6476 H   0  0  0  0  0  0  0  0  0  0  0  0
   -5.6196    3.0939    1.2547 H   0  0  0  0  0  0  0  0  0  0  0  0
   -7.8182    2.1932    1.1924 H   0  0  0  0  0  0  0  0  0  0  0  0
   -9.7504    2.0887   -0.3227 H   0  0  0  0  0  0  0  0  0  0  0  0
   -9.6329    0.7469   -2.3897 H   0  0  0  0  0  0  0  0  0  0  0  0
   -7.5664   -0.4882   -2.9336 H   0  0  0  0  0  0  0  0  0  0  0  0
   -5.6258   -0.3713   -1.4268 H   0  0  0  0  0  0  0  0  0  0  0  0
   -4.9732   -1.0987    0.7554 H   0  0  0  0  0  0  0  0  0  0  0  0
   -2.9458   -0.9541    2.1203 H   0  0  0  0  0  0  0  0  0  0  0  0
  1  2  2  0  0  0  0
  2  3  4  0  0  0  0
  3  4  2  0  0  0  0
  4  5  4  0  0  0  0
  1  6  4  0  0  0  0
  5  6  4  0  0  0  0
  6  7  4  0  0  0  0
  7  8  2  0  0  0  0
  8  9  4  0  0  0  0
  5 10  4  0  0  0  0
  9 10  2  0  0  0  0
 10 11  1  0  0  0  0
 11 12  1  0  0  0  0
 12 13  1  0  0  0  0
 13 14  2  0  0  0  0
 14 15  4  0  0  0  0
 15 16  2  0  0  0  0
 16 17  4  0  0  0  0
 13 18  4  0  0  0  0
 17 18  4  0  0  0  0
 18 19  4  0  0  0  0
 19 20  2  0  0  0  0
 20 21  4  0  0  0  0
 17 22  4  0  0  0  0
 21 22  2  0  0  0  0
 12 23  1  0  0  0  0
 23 24  1  0  0  0  0
 24 25  1  0  0  0  0
 25 26  4  0  0  0  0
 26 27  4  0  0  0  0
 27 28  4  0  0  0  0
 28 29  1  0  0  0  0
 29 30  4  0  0  0  0
 30 31  4  0  0  0  0
 31 32  4  0  0  0  0
 32 33  4  0  0  0  0
 29 34  4  0  0  0  0
 33 34  4  0  0  0  0
 28 35  4  0  0  0  0
 25 36  4  0  0  0  0
 35 36  4  0  0  0  0
 24 37  2  0  0  0  0
 23 38  1  0  0  0  0
 38 39  1  0  0  0  0
 39 40  1  0  0  0  0
 39 41  2  0  0  0  0
 11 42  1  0  0  0  0
 38 42  1  0  0  0  0
 42 43  1  0  0  0  0
 43 44  1  0  0  0  0
 44 45  4  0  0  0  0
 45 46  4  0  0  0  0
 46 47  4  0  0  0  0
 47 48  1  0  0  0  0
 48 49  4  0  0  0  0
 49 50  4  0  0  0  0
 50 51  4  0  0  0  0
 51 52  4  0  0  0  0
 48 53  4  0  0  0  0
 52 53  4  0  0  0  0
 47 54  4  0  0  0  0
 44 55  4  0  0  0  0
 54 55  4  0  0  0  0
 43 56  2  0  0  0  0
  1 57  1  0  0  0  0
  2 58  1  0  0  0  0
  3 59  1  0  0  0  0
  4 60  1  0  0  0  0
  7 61  1  0  0  0  0
  8 62  1  0  0  0  0
  9 63  1  0  0  0  0
 11 64  1  0  0  0  0
 12 65  1  0  0  0  0
 14 66  1  0  0  0  0
 15 67  1  0  0  0  0
 16 68  1  0  0  0  0
 19 69  1  0  0  0  0
 20 70  1  0  0  0  0
 21 71  1  0  0  0  0
 22 72  1  0  0  0  0
 26 73  1  0  0  0  0
 27 74  1  0  0  0  0
 30 75  1  0  0  0  0
 31 76  1  0  0  0  0
 32 77  1  0  0  0  0
 33 78  1  0  0  0  0
 34 79  1  0  0  0  0
 35 80  1  0  0  0  0
 36 81  1  0  0  0  0
 38 82  1  0  0  0  0
 40 83  1  0  0  0  0
 45 84  1  0  0  0  0
 46 85  1  0  0  0  0
 49 86  1  0  0  0  0
 50 87  1  0  0  0  0
 51 88  1  0  0  0  0
 52 89  1  0  0  0  0
 53 90  1  0  0  0  0
 54 91  1  0  0  0  0
 55 92  1  0  0  0  0
M  END
