
  xtb     03172201293D
 xtb: 6.3.3 (4ae9cef)
 54 58  0     0  0            999 V2000
    2.0537   -1.3261    1.3772 C   0  0  0  0  0  0  0  0  0  0  0  0
    3.1028   -1.8842    2.0837 C   0  0  0  0  0  0  0  0  0  0  0  0
    3.3335   -3.2479    2.0211 C   0  0  0  0  0  0  0  0  0  0  0  0
    2.5115   -4.0502    1.2492 C   0  0  0  0  0  0  0  0  0  0  0  0
    1.4629   -3.4921    0.5400 C   0  0  0  0  0  0  0  0  0  0  0  0
    1.2273   -2.1268    0.5986 C   0  0  0  0  0  0  0  0  0  0  0  0
    0.0696   -1.5185   -0.1550 C   0  0  0  0  0  0  0  0  0  0  0  0
   -0.9945   -0.9350    0.8032 C   0  0  0  0  0  0  0  0  0  0  0  0
   -2.4141   -1.2317    0.3640 C   0  0  0  0  0  0  0  0  0  0  0  0
   -2.7852   -2.5575    0.1648 C   0  0  0  0  0  0  0  0  0  0  0  0
   -4.0692   -2.8736   -0.2375 C   0  0  0  0  0  0  0  0  0  0  0  0
   -5.0007   -1.8685   -0.4392 C   0  0  0  0  0  0  0  0  0  0  0  0
   -4.6446   -0.5507   -0.2186 C   0  0  0  0  0  0  0  0  0  0  0  0
   -3.3587   -0.2319    0.1856 C   0  0  0  0  0  0  0  0  0  0  0  0
   -0.6640    0.4783    0.8230 N   0  0  0  0  0  0  0  0  0  0  0  0
   -0.9072    1.2692    1.9039 C   0  0  0  0  0  0  0  0  0  0  0  0
   -0.4770    2.6829    1.7488 C   0  0  0  0  0  0  0  0  0  0  0  0
   -1.2846    3.7829    1.7900 C   0  0  0  0  0  0  0  0  0  0  0  0
   -0.5690    4.9051    1.6334 O   0  0  0  0  0  0  0  0  0  0  0  0
    0.7096    4.5321    1.5064 C   0  0  0  0  0  0  0  0  0  0  0  0
    1.9859    5.8663    1.2651 Br  0  0  0  0  0  0  0  0  0  0  0  0
    0.8463    3.1784    1.5674 C   0  0  0  0  0  0  0  0  0  0  0  0
   -1.4333    0.8384    2.9041 O   0  0  0  0  0  0  0  0  0  0  0  0
   -0.0873    0.8643   -0.4400 C   0  0  0  0  0  0  0  0  0  0  0  0
   -1.2113    1.4119   -1.3736 C   0  0  0  0  0  0  0  0  0  0  0  0
   -1.5877    0.5982   -2.3496 O   0  0  0  0  0  0  0  0  0  0  0  0
   -1.6873    2.4944   -1.1946 O   0  0  0  0  0  0  0  0  0  0  0  0
    0.4934   -0.3541   -0.9461 N   0  0  0  0  0  0  0  0  0  0  0  0
    1.5987   -0.4605   -1.7476 C   0  0  0  0  0  0  0  0  0  0  0  0
    2.1896    0.7931   -2.2650 C   0  0  0  0  0  0  0  0  0  0  0  0
    3.5403    0.9264   -2.4589 C   0  0  0  0  0  0  0  0  0  0  0  0
    3.8382    2.1359   -2.9411 O   0  0  0  0  0  0  0  0  0  0  0  0
    2.6761    2.7899   -3.0861 C   0  0  0  0  0  0  0  0  0  0  0  0
    2.7407    4.5255   -3.7550 Br  0  0  0  0  0  0  0  0  0  0  0  0
    1.6181    2.0298   -2.6874 C   0  0  0  0  0  0  0  0  0  0  0  0
    2.0714   -1.5433   -2.0186 O   0  0  0  0  0  0  0  0  0  0  0  0
    1.8774   -0.2610    1.4338 H   0  0  0  0  0  0  0  0  0  0  0  0
    3.7407   -1.2531    2.6844 H   0  0  0  0  0  0  0  0  0  0  0  0
    4.1543   -3.6826    2.5712 H   0  0  0  0  0  0  0  0  0  0  0  0
    2.6896   -5.1135    1.1939 H   0  0  0  0  0  0  0  0  0  0  0  0
    0.8307   -4.1190   -0.0712 H   0  0  0  0  0  0  0  0  0  0  0  0
   -0.3588   -2.2708   -0.8256 H   0  0  0  0  0  0  0  0  0  0  0  0
   -0.8597   -1.3225    1.8202 H   0  0  0  0  0  0  0  0  0  0  0  0
   -2.0673   -3.3459    0.3407 H   0  0  0  0  0  0  0  0  0  0  0  0
   -4.3439   -3.9067   -0.3890 H   0  0  0  0  0  0  0  0  0  0  0  0
   -6.0028   -2.1143   -0.7557 H   0  0  0  0  0  0  0  0  0  0  0  0
   -5.3672    0.2386   -0.3579 H   0  0  0  0  0  0  0  0  0  0  0  0
   -3.1067    0.8007    0.3735 H   0  0  0  0  0  0  0  0  0  0  0  0
   -2.3453    3.8788    1.8997 H   0  0  0  0  0  0  0  0  0  0  0  0
    1.7655    2.6292    1.5313 H   0  0  0  0  0  0  0  0  0  0  0  0
    0.6514    1.6645   -0.3111 H   0  0  0  0  0  0  0  0  0  0  0  0
   -1.0845   -0.2352   -2.3417 H   0  0  0  0  0  0  0  0  0  0  0  0
    4.3420    0.2408   -2.2728 H   0  0  0  0  0  0  0  0  0  0  0  0
    0.5905    2.3215   -2.7390 H   0  0  0  0  0  0  0  0  0  0  0  0
  1  2  4  0  0  0  0
  2  3  4  0  0  0  0
  3  4  4  0  0  0  0
  4  5  4  0  0  0  0
  1  6  4  0  0  0  0
  5  6  4  0  0  0  0
  6  7  1  0  0  0  0
  7  8  1  0  0  0  0
  8  9  1  0  0  0  0
  9 10  4  0  0  0  0
 10 11  4  0  0  0  0
 11 12  4  0  0  0  0
 12 13  4  0  0  0  0
  9 14  4  0  0  0  0
 13 14  4  0  0  0  0
  8 15  1  0  0  0  0
 15 16  1  0  0  0  0
 16 17  1  0  0  0  0
 17 18  2  0  0  0  0
 18 19  1  0  0  0  0
 19 20  1  0  0  0  0
 20 21  1  0  0  0  0
 17 22  4  0  0  0  0
 20 22  2  0  0  0  0
 16 23  2  0  0  0  0
 15 24  1  0  0  0  0
 24 25  1  0  0  0  0
 25 26  1  0  0  0  0
 25 27  2  0  0  0  0
  7 28  1  0  0  0  0
 24 28  1  0  0  0  0
 28 29  1  0  0  0  0
 29 30  1  0  0  0  0
 30 31  2  0  0  0  0
 31 32  1  0  0  0  0
 32 33  1  0  0  0  0
 33 34  1  0  0  0  0
 30 35  4  0  0  0  0
 33 35  2  0  0  0  0
 29 36  2  0  0  0  0
  1 37  1  0  0  0  0
  2 38  1  0  0  0  0
  3 39  1  0  0  0  0
  4 40  1  0  0  0  0
  5 41  1  0  0  0  0
  7 42  1  0  0  0  0
  8 43  1  0  0  0  0
 10 44  1  0  0  0  0
 11 45  1  0  0  0  0
 12 46  1  0  0  0  0
 13 47  1  0  0  0  0
 14 48  1  0  0  0  0
 18 49  1  0  0  0  0
 22 50  1  0  0  0  0
 24 51  1  0  0  0  0
 26 52  1  0  0  0  0
 31 53  1  0  0  0  0
 35 54  1  0  0  0  0
M  END
