54

C      2.339894    0.365275   -1.705811
C      3.380668    0.947070   -2.433700
C      3.808894    2.239549   -2.137033
C      3.187834    2.955870   -1.119183
C      2.140549    2.379370   -0.397465
C      1.706107    1.070170   -0.673891
C      0.543979    0.489896    0.111925
C     -0.715873    0.319877   -0.782123
C     -1.739705    1.395753   -0.456241
C     -1.911807    2.471962   -1.339133
C     -2.828094    3.485502   -1.051492
C     -3.577748    3.441189    0.123361
C     -3.411009    2.384190    1.013575
C     -2.498343    1.367382    0.728474
N     -1.195318   -1.026944   -0.497349
C     -2.280273   -1.566394   -1.175363
C     -2.921741   -2.744871   -0.618154
C     -3.283288   -3.903536   -1.286637
C     -3.969373   -4.826721   -0.444037
C     -4.165785   -4.292549    0.807992
Cl    -4.993132   -5.032887    2.123949
S     -3.489043   -2.754305    1.004395
O     -2.678180   -1.054359   -2.222094
C     -0.186775   -1.812171    0.203668
C      0.502861   -2.856237   -0.739241
O      1.854085   -2.872577   -0.694995
O     -0.070039   -3.647899   -1.479366
N      0.781673   -0.840968    0.688297
C      1.505094   -1.148979    1.825958
C      2.370474   -0.125205    2.367598
C      3.607185    0.297273    1.916839
C      4.152729    1.334053    2.735200
C      3.313514    1.629281    3.775504
Cl     3.575985    2.808282    4.995862
S      1.896964    0.701199    3.789782
O      1.392299   -2.251258    2.356629
H      2.027188   -0.638359   -1.965668
H      3.858681    0.392754   -3.235763
H      4.619742    2.690954   -2.704893
H      3.515548    3.965334   -0.889976
H      1.665718    2.965465    0.387525
H      0.333995    1.150386    0.964882
H     -0.477272    0.349081   -1.852239
H     -1.338323    2.524553   -2.265191
H     -2.961989    4.308062   -1.749355
H     -4.295621    4.228603    0.340807
H     -3.994773    2.349129    1.928844
H     -2.389218    0.550345    1.440306
H     -3.057432   -4.074342   -2.331269
H     -4.332517   -5.802185   -0.756302
H     -0.631995   -2.363221    1.038418
H      2.106266   -3.621597   -1.278481
H      4.095394   -0.118057    1.042992
H      5.111344    1.817812    2.569663
