
  xtb     03172202133D
 xtb: 6.3.3 (4ae9cef)
 66 72  0     0  0            999 V2000
    1.4292    5.0953    0.1111 C   0  0  0  0  0  0  0  0  0  0  0  0
    0.5189    5.3321    1.1003 C   0  0  0  0  0  0  0  0  0  0  0  0
   -0.0724    4.2534    1.7711 C   0  0  0  0  0  0  0  0  0  0  0  0
    0.2338    2.9662    1.4285 C   0  0  0  0  0  0  0  0  0  0  0  0
    1.1436    2.6796    0.3866 C   0  0  0  0  0  0  0  0  0  0  0  0
    1.7672    3.7789   -0.2668 C   0  0  0  0  0  0  0  0  0  0  0  0
    2.7080    3.5436   -1.2904 C   0  0  0  0  0  0  0  0  0  0  0  0
    3.0158    2.2692   -1.6676 C   0  0  0  0  0  0  0  0  0  0  0  0
    2.3747    1.1819   -1.0595 C   0  0  0  0  0  0  0  0  0  0  0  0
    1.4581    1.3645   -0.0560 C   0  0  0  0  0  0  0  0  0  0  0  0
    0.7074    0.1793    0.5040 C   0  0  0  0  0  0  0  0  0  0  0  0
   -0.6019   -0.0625   -0.2836 C   0  0  0  0  0  0  0  0  0  0  0  0
   -1.7953    0.4768    0.4634 C   0  0  0  0  0  0  0  0  0  0  0  0
   -2.2903   -0.2511    1.5170 C   0  0  0  0  0  0  0  0  0  0  0  0
   -3.3608    0.2147    2.2884 C   0  0  0  0  0  0  0  0  0  0  0  0
   -3.9150    1.4323    2.0176 C   0  0  0  0  0  0  0  0  0  0  0  0
   -3.4189    2.2277    0.9651 C   0  0  0  0  0  0  0  0  0  0  0  0
   -2.3477    1.7495    0.1596 C   0  0  0  0  0  0  0  0  0  0  0  0
   -1.8764    2.5893   -0.8739 C   0  0  0  0  0  0  0  0  0  0  0  0
   -2.4180    3.8254   -1.0870 C   0  0  0  0  0  0  0  0  0  0  0  0
   -3.4692    4.2937   -0.2868 C   0  0  0  0  0  0  0  0  0  0  0  0
   -3.9611    3.5056    0.7129 C   0  0  0  0  0  0  0  0  0  0  0  0
   -0.6541   -1.5130   -0.4329 N   0  0  0  0  0  0  0  0  0  0  0  0
   -1.7596   -2.0893   -0.9861 C   0  0  0  0  0  0  0  0  0  0  0  0
   -1.8129   -3.5570   -1.0726 C   0  0  0  0  0  0  0  0  0  0  0  0
   -2.7802   -4.3009   -1.6998 C   0  0  0  0  0  0  0  0  0  0  0  0
   -2.4301   -5.6565   -1.5279 C   0  0  0  0  0  0  0  0  0  0  0  0
   -1.2741   -5.6395   -0.8019 C   0  0  0  0  0  0  0  0  0  0  0  0
   -0.2896   -6.9015   -0.2348 Cl  0  0  0  0  0  0  0  0  0  0  0  0
   -0.8905   -4.3873   -0.5163 O   0  0  0  0  0  0  0  0  0  0  0  0
   -2.7033   -1.4205   -1.3628 O   0  0  0  0  0  0  0  0  0  0  0  0
    0.6699   -2.0724   -0.3315 C   0  0  0  0  0  0  0  0  0  0  0  0
    1.3185   -2.3209   -1.7170 C   0  0  0  0  0  0  0  0  0  0  0  0
    0.5129   -2.9837   -2.5384 O   0  0  0  0  0  0  0  0  0  0  0  0
    2.4244   -1.9658   -2.0103 O   0  0  0  0  0  0  0  0  0  0  0  0
    1.4159   -1.0901    0.4047 N   0  0  0  0  0  0  0  0  0  0  0  0
    2.5884   -1.2505    1.0741 C   0  0  0  0  0  0  0  0  0  0  0  0
    3.2807   -2.5454    0.9794 C   0  0  0  0  0  0  0  0  0  0  0  0
    4.5146   -2.8461    1.4987 C   0  0  0  0  0  0  0  0  0  0  0  0
    4.7876   -4.1879    1.1594 C   0  0  0  0  0  0  0  0  0  0  0  0
    3.6961   -4.6084    0.4563 C   0  0  0  0  0  0  0  0  0  0  0  0
    3.3296   -6.1059   -0.2543 Cl  0  0  0  0  0  0  0  0  0  0  0  0
    2.7787   -3.6378    0.3399 O   0  0  0  0  0  0  0  0  0  0  0  0
    3.0634   -0.3481    1.7375 O   0  0  0  0  0  0  0  0  0  0  0  0
    1.9089    5.9158   -0.4038 H   0  0  0  0  0  0  0  0  0  0  0  0
    0.2590    6.3427    1.3787 H   0  0  0  0  0  0  0  0  0  0  0  0
   -0.7779    4.4440    2.5663 H   0  0  0  0  0  0  0  0  0  0  0  0
   -0.2364    2.1641    1.9741 H   0  0  0  0  0  0  0  0  0  0  0  0
    3.1779    4.3913   -1.7682 H   0  0  0  0  0  0  0  0  0  0  0  0
    3.7414    2.0829   -2.4453 H   0  0  0  0  0  0  0  0  0  0  0  0
    2.6230    0.1868   -1.3938 H   0  0  0  0  0  0  0  0  0  0  0  0
    0.4967    0.3473    1.5663 H   0  0  0  0  0  0  0  0  0  0  0  0
   -0.5317    0.3896   -1.2796 H   0  0  0  0  0  0  0  0  0  0  0  0
   -1.8520   -1.2096    1.7573 H   0  0  0  0  0  0  0  0  0  0  0  0
   -3.7335   -0.3938    3.0989 H   0  0  0  0  0  0  0  0  0  0  0  0
   -4.7359    1.8091    2.6107 H   0  0  0  0  0  0  0  0  0  0  0  0
   -1.0652    2.2677   -1.5075 H   0  0  0  0  0  0  0  0  0  0  0  0
   -2.0330    4.4521   -1.8778 H   0  0  0  0  0  0  0  0  0  0  0  0
   -3.8838    5.2742   -0.4690 H   0  0  0  0  0  0  0  0  0  0  0  0
   -4.7742    3.8502    1.3361 H   0  0  0  0  0  0  0  0  0  0  0  0
   -3.6307   -3.9065   -2.2155 H   0  0  0  0  0  0  0  0  0  0  0  0
   -2.9506   -6.5195   -1.8853 H   0  0  0  0  0  0  0  0  0  0  0  0
    0.6459   -3.0368    0.1912 H   0  0  0  0  0  0  0  0  0  0  0  0
    0.9413   -3.1347   -3.3979 H   0  0  0  0  0  0  0  0  0  0  0  0
    5.1360   -2.1729    2.0516 H   0  0  0  0  0  0  0  0  0  0  0  0
    5.6591   -4.7611    1.3950 H   0  0  0  0  0  0  0  0  0  0  0  0
  1  2  2  0  0  0  0
  2  3  4  0  0  0  0
  3  4  2  0  0  0  0
  4  5  4  0  0  0  0
  1  6  4  0  0  0  0
  5  6  4  0  0  0  0
  6  7  4  0  0  0  0
  7  8  2  0  0  0  0
  8  9  4  0  0  0  0
  5 10  4  0  0  0  0
  9 10  2  0  0  0  0
 10 11  1  0  0  0  0
 11 12  1  0  0  0  0
 12 13  1  0  0  0  0
 13 14  2  0  0  0  0
 14 15  4  0  0  0  0
 15 16  2  0  0  0  0
 16 17  4  0  0  0  0
 13 18  4  0  0  0  0
 17 18  4  0  0  0  0
 18 19  4  0  0  0  0
 19 20  2  0  0  0  0
 20 21  4  0  0  0  0
 17 22  4  0  0  0  0
 21 22  2  0  0  0  0
 12 23  1  0  0  0  0
 23 24  1  0  0  0  0
 24 25  1  0  0  0  0
 25 26  2  0  0  0  0
 26 27  4  0  0  0  0
 27 28  2  0  0  0  0
 28 29  1  0  0  0  0
 25 30  1  0  0  0  0
 28 30  1  0  0  0  0
 24 31  2  0  0  0  0
 23 32  1  0  0  0  0
 32 33  1  0  0  0  0
 33 34  1  0  0  0  0
 33 35  2  0  0  0  0
 11 36  1  0  0  0  0
 32 36  1  0  0  0  0
 36 37  1  0  0  0  0
 37 38  1  0  0  0  0
 38 39  2  0  0  0  0
 39 40  4  0  0  0  0
 40 41  2  0  0  0  0
 41 42  1  0  0  0  0
 38 43  1  0  0  0  0
 41 43  1  0  0  0  0
 37 44  2  0  0  0  0
  1 45  1  0  0  0  0
  2 46  1  0  0  0  0
  3 47  1  0  0  0  0
  4 48  1  0  0  0  0
  7 49  1  0  0  0  0
  8 50  1  0  0  0  0
  9 51  1  0  0  0  0
 11 52  1  0  0  0  0
 12 53  1  0  0  0  0
 14 54  1  0  0  0  0
 15 55  1  0  0  0  0
 16 56  1  0  0  0  0
 19 57  1  0  0  0  0
 20 58  1  0  0  0  0
 21 59  1  0  0  0  0
 22 60  1  0  0  0  0
 26 61  1  0  0  0  0
 27 62  1  0  0  0  0
 32 63  1  0  0  0  0
 34 64  1  0  0  0  0
 39 65  1  0  0  0  0
 40 66  1  0  0  0  0
M  END
