62

C     -1.937991   -2.767900    0.396067
O     -1.222494   -3.102347    1.518204
C     -2.075096   -3.220816    2.658158
C     -2.853453   -3.677649   -0.141795
C     -3.555075   -3.355349   -1.300610
C     -3.327353   -2.134623   -1.928909
C     -2.394481   -1.236928   -1.402641
C     -1.681865   -1.536578   -0.230683
C     -0.646641   -0.586276    0.344661
C      0.674455   -0.570233   -0.477079
C      1.687353   -1.565066    0.061317
C      2.224756   -1.431714    1.353992
C      3.143211   -2.358286    1.851189
C      3.534202   -3.439784    1.067713
C      3.013482   -3.590734   -0.215566
C      2.110461   -2.650213   -0.721338
O      1.579506   -2.804004   -1.975968
C      2.593868   -2.758508   -2.981384
N      1.102750    0.831387   -0.386194
C      2.307505    1.276485   -0.916136
C      2.758406    2.609674   -0.544147
C      2.870289    3.223294    0.687162
Br     2.482876    2.464096    2.376712
C      3.364949    4.553856    0.614816
C      3.670765    4.909390   -0.678568
S      3.379586    3.634160   -1.778956
O      2.971399    0.549548   -1.653659
C     -0.063885    1.686197   -0.216708
C     -0.542080    2.263795   -1.587049
O     -1.853112    2.109006   -1.851542
O      0.148781    2.861411   -2.398057
N     -1.064349    0.824266    0.404036
C     -2.076340    1.222505    1.267428
C     -2.405245    2.631064    1.336484
C     -3.487916    3.287629    0.798102
Br    -4.844470    2.504628   -0.260017
C     -3.521649    4.670797    1.114864
C     -2.476386    5.023995    1.939801
S     -1.490201    3.681539    2.336962
O     -2.691594    0.402222    1.946888
H     -2.591988   -4.185864    2.656911
H     -2.797249   -2.398173    2.718194
H     -1.442937   -3.180361    3.550361
H     -3.010863   -4.642721    0.330105
H     -4.270800   -4.059119   -1.716693
H     -3.871384   -1.881519   -2.835113
H     -2.233167   -0.301420   -1.924741
H     -0.451493   -0.846698    1.392235
H      0.474632   -0.740589   -1.542153
H      1.923976   -0.606496    1.992322
H      3.546110   -2.240171    2.853472
H      4.238689   -4.168746    1.458446
H      3.305716   -4.449168   -0.813672
H      3.370400   -2.017086   -2.757585
H      2.117533   -2.471538   -3.924307
H      3.039349   -3.749832   -3.116579
H      3.513617    5.214527    1.460628
H      4.075095    5.848962   -1.031714
H      0.170141    2.537535    0.417374
H     -1.976899    2.532989   -2.727570
H     -4.277302    5.371468    0.780763
H     -2.258097    6.000081    2.351770
