
  xtb     03172201243D
 xtb: 6.3.3 (4ae9cef)
 62 66  0     0  0            999 V2000
   -1.7247   -2.6397    0.0523 C   0  0  0  0  0  0  0  0  0  0  0  0
   -0.8027   -3.0714    0.9569 O   0  0  0  0  0  0  0  0  0  0  0  0
   -0.7323   -4.4439    1.2509 C   0  0  0  0  0  0  0  0  0  0  0  0
   -2.6396   -3.4574   -0.5972 C   0  0  0  0  0  0  0  0  0  0  0  0
   -3.5406   -2.9152   -1.4994 C   0  0  0  0  0  0  0  0  0  0  0  0
   -3.5399   -1.5602   -1.7631 C   0  0  0  0  0  0  0  0  0  0  0  0
   -2.6243   -0.7415   -1.1225 C   0  0  0  0  0  0  0  0  0  0  0  0
   -1.7200   -1.2625   -0.2170 C   0  0  0  0  0  0  0  0  0  0  0  0
   -0.6859   -0.4176    0.4781 C   0  0  0  0  0  0  0  0  0  0  0  0
    0.6616   -0.4370   -0.2744 C   0  0  0  0  0  0  0  0  0  0  0  0
    1.6392   -1.4038    0.3301 C   0  0  0  0  0  0  0  0  0  0  0  0
    2.2324   -1.1382    1.5511 C   0  0  0  0  0  0  0  0  0  0  0  0
    3.1198   -2.0355    2.1192 C   0  0  0  0  0  0  0  0  0  0  0  0
    3.4088   -3.2130    1.4577 C   0  0  0  0  0  0  0  0  0  0  0  0
    2.8153   -3.5008    0.2400 C   0  0  0  0  0  0  0  0  0  0  0  0
    1.9230   -2.6042   -0.3347 C   0  0  0  0  0  0  0  0  0  0  0  0
    1.2701   -2.8151   -1.5121 O   0  0  0  0  0  0  0  0  0  0  0  0
    1.5801   -3.9660   -2.2576 C   0  0  0  0  0  0  0  0  0  0  0  0
    1.1184    0.9475   -0.1775 N   0  0  0  0  0  0  0  0  0  0  0  0
    2.3244    1.3038   -0.7075 C   0  0  0  0  0  0  0  0  0  0  0  0
    2.6702    2.7421   -0.5666 C   0  0  0  0  0  0  0  0  0  0  0  0
    2.7601    3.4988    0.5697 C   0  0  0  0  0  0  0  0  0  0  0  0
    2.3341    2.8540    2.2965 Br  0  0  0  0  0  0  0  0  0  0  0  0
    3.2372    4.8096    0.3512 C   0  0  0  0  0  0  0  0  0  0  0  0
    3.5112    5.0224   -0.9615 C   0  0  0  0  0  0  0  0  0  0  0  0
    3.2100    3.6384   -1.9350 S   0  0  0  0  0  0  0  0  0  0  0  0
    3.0970    0.5060   -1.1860 O   0  0  0  0  0  0  0  0  0  0  0  0
   -0.0276    1.8120   -0.0832 C   0  0  0  0  0  0  0  0  0  0  0  0
   -0.4461    2.2941   -1.4960 C   0  0  0  0  0  0  0  0  0  0  0  0
   -1.7272    2.6305   -1.5481 O   0  0  0  0  0  0  0  0  0  0  0  0
    0.3189    2.3856   -2.4126 O   0  0  0  0  0  0  0  0  0  0  0  0
   -1.0254    0.9973    0.5521 N   0  0  0  0  0  0  0  0  0  0  0  0
   -2.0971    1.4025    1.2728 C   0  0  0  0  0  0  0  0  0  0  0  0
   -2.3428    2.8716    1.3242 C   0  0  0  0  0  0  0  0  0  0  0  0
   -3.4410    3.5141    0.8311 C   0  0  0  0  0  0  0  0  0  0  0  0
   -4.7404    2.6589   -0.2289 Br  0  0  0  0  0  0  0  0  0  0  0  0
   -3.4836    4.8967    1.1280 C   0  0  0  0  0  0  0  0  0  0  0  0
   -2.4170    5.2817    1.8694 C   0  0  0  0  0  0  0  0  0  0  0  0
   -1.3457    3.9776    2.2058 S   0  0  0  0  0  0  0  0  0  0  0  0
   -2.8426    0.6255    1.8261 O   0  0  0  0  0  0  0  0  0  0  0  0
   -0.5248   -5.0368    0.3543 H   0  0  0  0  0  0  0  0  0  0  0  0
   -1.6536   -4.8044    1.7195 H   0  0  0  0  0  0  0  0  0  0  0  0
    0.0962   -4.5483    1.9501 H   0  0  0  0  0  0  0  0  0  0  0  0
   -2.6645   -4.5180   -0.4031 H   0  0  0  0  0  0  0  0  0  0  0  0
   -4.2485   -3.5642   -1.9931 H   0  0  0  0  0  0  0  0  0  0  0  0
   -4.2477   -1.1363   -2.4583 H   0  0  0  0  0  0  0  0  0  0  0  0
   -2.6326    0.3192   -1.3204 H   0  0  0  0  0  0  0  0  0  0  0  0
   -0.5579   -0.7994    1.4984 H   0  0  0  0  0  0  0  0  0  0  0  0
    0.5047   -0.7009   -1.3282 H   0  0  0  0  0  0  0  0  0  0  0  0
    2.0014   -0.2145    2.0605 H   0  0  0  0  0  0  0  0  0  0  0  0
    3.5798   -1.8136    3.0696 H   0  0  0  0  0  0  0  0  0  0  0  0
    4.1010   -3.9220    1.8875 H   0  0  0  0  0  0  0  0  0  0  0  0
    3.0579   -4.4289   -0.2533 H   0  0  0  0  0  0  0  0  0  0  0  0
    2.6371   -3.9898   -2.5397 H   0  0  0  0  0  0  0  0  0  0  0  0
    0.9679   -3.9063   -3.1565 H   0  0  0  0  0  0  0  0  0  0  0  0
    1.3283   -4.8819   -1.7119 H   0  0  0  0  0  0  0  0  0  0  0  0
    3.3642    5.5316    1.1368 H   0  0  0  0  0  0  0  0  0  0  0  0
    3.8780    5.9206   -1.4162 H   0  0  0  0  0  0  0  0  0  0  0  0
    0.1819    2.7169    0.5046 H   0  0  0  0  0  0  0  0  0  0  0  0
   -1.9889    2.9267   -2.4369 H   0  0  0  0  0  0  0  0  0  0  0  0
   -4.2762    5.5456    0.8042 H   0  0  0  0  0  0  0  0  0  0  0  0
   -2.1885    6.2569    2.2497 H   0  0  0  0  0  0  0  0  0  0  0  0
  1  2  1  0  0  0  0
  2  3  1  0  0  0  0
  1  4  4  0  0  0  0
  4  5  4  0  0  0  0
  5  6  4  0  0  0  0
  6  7  4  0  0  0  0
  1  8  4  0  0  0  0
  7  8  4  0  0  0  0
  8  9  1  0  0  0  0
  9 10  1  0  0  0  0
 10 11  1  0  0  0  0
 11 12  4  0  0  0  0
 12 13  4  0  0  0  0
 13 14  4  0  0  0  0
 14 15  4  0  0  0  0
 11 16  4  0  0  0  0
 15 16  4  0  0  0  0
 16 17  1  0  0  0  0
 17 18  1  0  0  0  0
 10 19  1  0  0  0  0
 19 20  1  0  0  0  0
 20 21  1  0  0  0  0
 21 22  2  0  0  0  0
 22 23  1  0  0  0  0
 22 24  4  0  0  0  0
 24 25  2  0  0  0  0
 21 26  1  0  0  0  0
 25 26  1  0  0  0  0
 20 27  2  0  0  0  0
 19 28  1  0  0  0  0
 28 29  1  0  0  0  0
 29 30  1  0  0  0  0
 29 31  2  0  0  0  0
  9 32  1  0  0  0  0
 28 32  1  0  0  0  0
 32 33  4  0  0  0  0
 33 34  1  0  0  0  0
 34 35  2  0  0  0  0
 35 36  1  0  0  0  0
 35 37  4  0  0  0  0
 37 38  2  0  0  0  0
 34 39  1  0  0  0  0
 38 39  1  0  0  0  0
 33 40  2  0  0  0  0
  3 41  1  0  0  0  0
  3 42  1  0  0  0  0
  3 43  1  0  0  0  0
  4 44  1  0  0  0  0
  5 45  1  0  0  0  0
  6 46  1  0  0  0  0
  7 47  1  0  0  0  0
  9 48  1  0  0  0  0
 10 49  1  0  0  0  0
 12 50  1  0  0  0  0
 13 51  1  0  0  0  0
 14 52  1  0  0  0  0
 15 53  1  0  0  0  0
 18 54  1  0  0  0  0
 18 55  1  0  0  0  0
 18 56  1  0  0  0  0
 24 57  1  0  0  0  0
 25 58  1  0  0  0  0
 28 59  1  0  0  0  0
 30 60  1  0  0  0  0
 37 61  1  0  0  0  0
 38 62  1  0  0  0  0
M  END
