28

C     -4.483994    0.959652    0.064546
C     -3.227703    0.154145    0.211233
C     -1.975880    0.733932   -0.039133
C     -0.819018   -0.042103    0.072532
N      0.477530    0.540844   -0.173503
C      0.718405    1.862385   -0.521373
C      2.068676    2.059777   -0.676031
C      2.712547    0.828810   -0.418975
C      1.719659   -0.110861   -0.107001
C      2.074383   -1.441851    0.197617
C      3.424448   -1.808167    0.184044
C      4.411325   -0.882064   -0.123970
C      4.067484    0.436782   -0.426513
N     -0.883892   -1.354254    0.410246
C     -2.098925   -1.898725    0.633201
C     -3.285340   -1.196488    0.542647
H     -5.281424    0.561914    0.701087
H     -4.821276    0.940714   -0.976323
H     -4.317074    1.999296    0.365320
H     -1.945934    1.780483   -0.315911
H     -0.079752    2.578657   -0.636384
H      2.543079    2.994164   -0.945707
H      1.325582   -2.188273    0.442177
H      3.699502   -2.833716    0.418715
H      5.455520   -1.182849   -0.130079
H      4.843510    1.157861   -0.666882
H     -2.091604   -2.953365    0.893469
H     -4.229834   -1.696700    0.727964
