66

C      0.731415   -2.477055    1.113353
C      0.854406   -3.680489    1.810458
C      0.758480   -4.893376    1.130961
C      0.550375   -4.904386   -0.246664
C      0.423857   -3.702776   -0.945856
C      0.501967   -2.472137   -0.273745
C      0.305226   -1.173727   -1.051390
C     -0.970920   -0.426900   -0.543100
C     -1.927422   -0.071821   -1.679174
C     -2.303418    1.241892   -1.999683
C     -3.188886    1.500874   -3.050670
C     -3.717262    0.452814   -3.799863
C     -3.368529   -0.856580   -3.493417
C     -2.489083   -1.115296   -2.438705
N     -0.415711    0.721173    0.190232
C     -0.889955    1.314998    1.335945
C     -2.186309    0.871476    1.871321
C     -3.365854    1.462189    1.417579
C     -4.586422    1.064490    1.964185
C     -4.628302    0.096249    2.979248
C     -5.943654   -0.341781    3.556778
C     -3.432170   -0.485167    3.427567
C     -2.208439   -0.087148    2.885066
O     -0.271783    2.174877    1.957640
C      0.933277    1.015881   -0.261651
C      0.840047    2.196302   -1.278483
O      1.120239    1.856195   -2.557285
O      0.464716    3.335777   -1.045466
N      1.405213   -0.235374   -0.840100
C      2.687273   -0.492262   -1.279599
C      3.749021    0.425642   -0.827841
C      4.199848    1.445677   -1.670221
C      5.164943    2.340143   -1.205637
C      5.703642    2.198087    0.083128
C      6.708356    3.191158    0.588336
C      5.258992    1.150143    0.907975
C      4.289435    0.256834    0.452230
O      2.998938   -1.438627   -1.992212
H      0.817177   -1.542449    1.662265
H      1.026820   -3.671868    2.883505
H      0.854888   -5.831847    1.671339
H      0.491934   -5.849821   -0.779767
H      0.275361   -3.735573   -2.023616
H      0.267208   -1.392801   -2.125904
H     -1.551768   -1.039596    0.155604
H     -1.928261    2.091741   -1.434558
H     -3.468757    2.526975   -3.284088
H     -4.401759    0.656568   -4.618729
H     -3.787501   -1.680754   -4.067341
H     -2.248720   -2.152606   -2.211162
H     -3.339746    2.240768    0.659940
H     -5.505193    1.518069    1.597606
H     -6.711188    0.427117    3.417001
H     -6.280664   -1.262628    3.068751
H     -5.853731   -0.519152    4.634660
H     -3.444777   -1.226026    4.223454
H     -1.282681   -0.512441    3.262690
H      1.587415    1.325656    0.559560
H      0.915946    2.665393   -3.074961
H      3.789936    1.555586   -2.672758
H      5.493264    3.155825   -1.849854
H      6.198773    4.104633    0.911003
H      7.271160    2.787020    1.435733
H      7.432346    3.441105   -0.192414
H      5.670064    1.024574    1.910289
H      3.956909   -0.561436    1.090513
