68

C     -0.712659   -2.510963    0.906596
O     -0.359937   -1.608196    1.874837
C     -0.814238   -1.851034    3.199790
C     -1.458775   -3.670392    1.150487
C     -1.783606   -4.541899    0.110021
C     -1.362245   -4.267148   -1.185246
C     -0.621032   -3.116137   -1.442366
C     -0.284404   -2.222826   -0.406661
C      0.504750   -0.967538   -0.776860
C     -0.351097    0.309133   -0.557070
C     -0.779300    0.935526   -1.878510
C      0.159416    1.566955   -2.715085
C     -0.227555    2.133658   -3.928892
C     -1.556399    2.070708   -4.330892
C     -2.500250    1.432933   -3.524788
C     -2.122319    0.859448   -2.304961
O     -2.980492    0.199171   -1.465746
C     -4.359522    0.172212   -1.810948
N      0.473661    1.181707    0.288169
C      0.033653    2.238315    1.060998
C     -1.273738    2.839661    0.750747
C     -2.430335    2.493899    1.450153
Cl    -2.433353    1.327489    2.719284
C     -3.641760    3.106686    1.117485
C     -3.692162    4.067402    0.103835
C     -2.530166    4.426357   -0.577145
C     -1.317843    3.820106   -0.249636
O      0.705214    2.741246    1.956825
C      1.753288    0.567870    0.611372
C      2.934506    1.434668    0.063429
O      2.587498    2.599300   -0.530369
O      4.122995    1.150218    0.110303
N      1.723392   -0.762579    0.009072
C      2.688994   -1.751244    0.086527
C      3.716313   -1.680254    1.145953
C      3.290117   -1.685934    2.483650
C      4.223655   -1.668495    3.519821
C      5.586132   -1.663033    3.225701
C      6.015370   -1.686373    1.896134
C      5.084802   -1.705741    0.851043
Cl     5.697964   -1.728694   -0.765184
O      2.698700   -2.732006   -0.653228
H     -0.456624   -1.032491    3.833108
H     -0.393309   -2.780214    3.595856
H     -1.908161   -1.858950    3.249089
H     -1.804991   -3.930560    2.145046
H     -2.360367   -5.439369    0.315493
H     -1.604943   -4.949795   -1.995152
H     -0.290850   -2.922108   -2.461583
H      0.841362   -1.051292   -1.818557
H     -1.239185    0.091216    0.043933
H      1.205877    1.620461   -2.429242
H      0.511363    2.618211   -4.561900
H     -1.859039    2.508577   -5.278424
H     -3.524892    1.393955   -3.880706
H     -4.520625   -0.382898   -2.739746
H     -4.771154    1.184231   -1.874651
H     -4.892360   -0.351768   -1.011682
H     -4.552690    2.841480    1.647777
H     -4.637760    4.539566   -0.150244
H     -2.567212    5.174545   -1.365557
H     -0.410472    4.099109   -0.779782
H      1.860093    0.498149    1.697731
H      3.450502    3.006014   -0.754059
H      2.229523   -1.724098    2.720252
H      3.889674   -1.668396    4.554417
H      6.317781   -1.649286    4.030804
H      7.081230   -1.688472    1.679135
