
  xtb     03172201583D
 xtb: 6.3.3 (4ae9cef)
 68 72  0     0  0            999 V2000
   -0.6769   -2.7042    0.8454 C   0  0  0  0  0  0  0  0  0  0  0  0
   -0.3199   -1.8324    1.8354 O   0  0  0  0  0  0  0  0  0  0  0  0
   -0.7111   -2.1122    3.1572 C   0  0  0  0  0  0  0  0  0  0  0  0
   -1.3658   -3.8905    1.0611 C   0  0  0  0  0  0  0  0  0  0  0  0
   -1.6965   -4.7093   -0.0056 C   0  0  0  0  0  0  0  0  0  0  0  0
   -1.3458   -4.3566   -1.2939 C   0  0  0  0  0  0  0  0  0  0  0  0
   -0.6531   -3.1781   -1.5120 C   0  0  0  0  0  0  0  0  0  0  0  0
   -0.3120   -2.3461   -0.4613 C   0  0  0  0  0  0  0  0  0  0  0  0
    0.4151   -1.0526   -0.7219 C   0  0  0  0  0  0  0  0  0  0  0  0
   -0.4707    0.1738   -0.4147 C   0  0  0  0  0  0  0  0  0  0  0  0
   -0.8923    0.8953   -1.6679 C   0  0  0  0  0  0  0  0  0  0  0  0
    0.0549    1.5020   -2.4770 C   0  0  0  0  0  0  0  0  0  0  0  0
   -0.3217    2.1770   -3.6245 C   0  0  0  0  0  0  0  0  0  0  0  0
   -1.6590    2.2389   -3.9682 C   0  0  0  0  0  0  0  0  0  0  0  0
   -2.6187    1.6310   -3.1774 C   0  0  0  0  0  0  0  0  0  0  0  0
   -2.2474    0.9521   -2.0228 C   0  0  0  0  0  0  0  0  0  0  0  0
   -3.1195    0.3329   -1.1795 O   0  0  0  0  0  0  0  0  0  0  0  0
   -4.4960    0.3967   -1.4633 C   0  0  0  0  0  0  0  0  0  0  0  0
    0.3644    1.0020    0.4347 N   0  0  0  0  0  0  0  0  0  0  0  0
    0.2246    2.3134    0.7025 C   0  0  0  0  0  0  0  0  0  0  0  0
   -1.0739    2.9313    0.2896 C   0  0  0  0  0  0  0  0  0  0  0  0
   -2.2689    2.5660    0.9005 C   0  0  0  0  0  0  0  0  0  0  0  0
   -2.2662    1.3777    2.1513 Cl  0  0  0  0  0  0  0  0  0  0  0  0
   -3.4648    3.1635    0.5375 C   0  0  0  0  0  0  0  0  0  0  0  0
   -3.4680    4.1356   -0.4468 C   0  0  0  0  0  0  0  0  0  0  0  0
   -2.2812    4.5304   -1.0429 C   0  0  0  0  0  0  0  0  0  0  0  0
   -1.0897    3.9412   -0.6645 C   0  0  0  0  0  0  0  0  0  0  0  0
    1.1084    2.9419    1.2580 O   0  0  0  0  0  0  0  0  0  0  0  0
    1.5423    0.3203    0.9145 C   0  0  0  0  0  0  0  0  0  0  0  0
    2.7911    1.2089    0.7276 C   0  0  0  0  0  0  0  0  0  0  0  0
    2.8956    1.6393   -0.5289 O   0  0  0  0  0  0  0  0  0  0  0  0
    3.6115    1.4021    1.5773 O   0  0  0  0  0  0  0  0  0  0  0  0
    1.5837   -0.8874    0.1333 N   0  0  0  0  0  0  0  0  0  0  0  0
    2.5228   -1.8596    0.1958 C   0  0  0  0  0  0  0  0  0  0  0  0
    3.6072   -1.6234    1.2050 C   0  0  0  0  0  0  0  0  0  0  0  0
    3.3834   -1.9013    2.5465 C   0  0  0  0  0  0  0  0  0  0  0  0
    4.3978   -1.7408    3.4725 C   0  0  0  0  0  0  0  0  0  0  0  0
    5.6463   -1.3046    3.0629 C   0  0  0  0  0  0  0  0  0  0  0  0
    5.8877   -1.0282    1.7293 C   0  0  0  0  0  0  0  0  0  0  0  0
    4.8668   -1.1930    0.8098 C   0  0  0  0  0  0  0  0  0  0  0  0
    5.1389   -0.8219   -0.8539 Cl  0  0  0  0  0  0  0  0  0  0  0  0
    2.4821   -2.8504   -0.5021 O   0  0  0  0  0  0  0  0  0  0  0  0
   -0.3571   -1.2720    3.7537 H   0  0  0  0  0  0  0  0  0  0  0  0
   -0.2562   -3.0370    3.5274 H   0  0  0  0  0  0  0  0  0  0  0  0
   -1.7996   -2.1808    3.2480 H   0  0  0  0  0  0  0  0  0  0  0  0
   -1.6482   -4.1888    2.0583 H   0  0  0  0  0  0  0  0  0  0  0  0
   -2.2301   -5.6292    0.1817 H   0  0  0  0  0  0  0  0  0  0  0  0
   -1.6021   -4.9963   -2.1241 H   0  0  0  0  0  0  0  0  0  0  0  0
   -0.3647   -2.8987   -2.5140 H   0  0  0  0  0  0  0  0  0  0  0  0
    0.7428   -1.0418   -1.7691 H   0  0  0  0  0  0  0  0  0  0  0  0
   -1.3632   -0.1463    0.1332 H   0  0  0  0  0  0  0  0  0  0  0  0
    1.0949    1.4570   -2.1898 H   0  0  0  0  0  0  0  0  0  0  0  0
    0.4236    2.6500   -4.2448 H   0  0  0  0  0  0  0  0  0  0  0  0
   -1.9666    2.7628   -4.8607 H   0  0  0  0  0  0  0  0  0  0  0  0
   -3.6547    1.6927   -3.4694 H   0  0  0  0  0  0  0  0  0  0  0  0
   -4.7343   -0.0980   -2.4098 H   0  0  0  0  0  0  0  0  0  0  0  0
   -4.8507    1.4319   -1.4888 H   0  0  0  0  0  0  0  0  0  0  0  0
   -4.9855   -0.1340   -0.6483 H   0  0  0  0  0  0  0  0  0  0  0  0
   -4.3792    2.8667    1.0275 H   0  0  0  0  0  0  0  0  0  0  0  0
   -4.4003    4.5966   -0.7371 H   0  0  0  0  0  0  0  0  0  0  0  0
   -2.2842    5.3008   -1.7980 H   0  0  0  0  0  0  0  0  0  0  0  0
   -0.1570    4.2457   -1.1129 H   0  0  0  0  0  0  0  0  0  0  0  0
    1.4605    0.1098    1.9947 H   0  0  0  0  0  0  0  0  0  0  0  0
    3.6933    2.1834   -0.6294 H   0  0  0  0  0  0  0  0  0  0  0  0
    2.4073   -2.2468    2.8532 H   0  0  0  0  0  0  0  0  0  0  0  0
    4.2136   -1.9533    4.5146 H   0  0  0  0  0  0  0  0  0  0  0  0
    6.4380   -1.1738    3.7845 H   0  0  0  0  0  0  0  0  0  0  0  0
    6.8546   -0.6810    1.4008 H   0  0  0  0  0  0  0  0  0  0  0  0
  1  2  1  0  0  0  0
  2  3  1  0  0  0  0
  1  4  4  0  0  0  0
  4  5  4  0  0  0  0
  5  6  4  0  0  0  0
  6  7  4  0  0  0  0
  1  8  4  0  0  0  0
  7  8  4  0  0  0  0
  8  9  1  0  0  0  0
  9 10  1  0  0  0  0
 10 11  1  0  0  0  0
 11 12  4  0  0  0  0
 12 13  4  0  0  0  0
 13 14  4  0  0  0  0
 14 15  4  0  0  0  0
 11 16  4  0  0  0  0
 15 16  4  0  0  0  0
 16 17  1  0  0  0  0
 17 18  1  0  0  0  0
 10 19  1  0  0  0  0
 19 20  4  0  0  0  0
 20 21  1  0  0  0  0
 21 22  4  0  0  0  0
 22 23  1  0  0  0  0
 22 24  4  0  0  0  0
 24 25  4  0  0  0  0
 25 26  4  0  0  0  0
 21 27  4  0  0  0  0
 26 27  4  0  0  0  0
 20 28  2  0  0  0  0
 19 29  1  0  0  0  0
 29 30  1  0  0  0  0
 30 31  1  0  0  0  0
 30 32  2  0  0  0  0
  9 33  1  0  0  0  0
 29 33  1  0  0  0  0
 33 34  4  0  0  0  0
 34 35  1  0  0  0  0
 35 36  4  0  0  0  0
 36 37  4  0  0  0  0
 37 38  4  0  0  0  0
 38 39  4  0  0  0  0
 35 40  4  0  0  0  0
 39 40  4  0  0  0  0
 40 41  1  0  0  0  0
 34 42  2  0  0  0  0
  3 43  1  0  0  0  0
  3 44  1  0  0  0  0
  3 45  1  0  0  0  0
  4 46  1  0  0  0  0
  5 47  1  0  0  0  0
  6 48  1  0  0  0  0
  7 49  1  0  0  0  0
  9 50  1  0  0  0  0
 10 51  1  0  0  0  0
 12 52  1  0  0  0  0
 13 53  1  0  0  0  0
 14 54  1  0  0  0  0
 15 55  1  0  0  0  0
 18 56  1  0  0  0  0
 18 57  1  0  0  0  0
 18 58  1  0  0  0  0
 24 59  1  0  0  0  0
 25 60  1  0  0  0  0
 26 61  1  0  0  0  0
 27 62  1  0  0  0  0
 29 63  1  0  0  0  0
 31 64  1  0  0  0  0
 36 65  1  0  0  0  0
 37 66  1  0  0  0  0
 38 67  1  0  0  0  0
 39 68  1  0  0  0  0
M  END
