62

C     -1.569478   -1.423231   -2.843046
O     -2.465391   -2.111826   -2.066247
C     -3.818551   -1.734258   -2.320900
C     -1.654813   -1.490726   -4.239791
C     -0.698948   -0.862260   -5.032877
C      0.355592   -0.185178   -4.432512
C      0.453639   -0.134707   -3.038994
C     -0.508741   -0.747591   -2.211081
C     -0.420853   -0.695464   -0.684307
C      1.029497   -0.765131   -0.123118
C      1.086367   -1.743441    1.055719
C      0.908802   -1.321963    2.386829
C      0.946531   -2.237691    3.437310
C      1.148101   -3.587743    3.173568
C      1.304379   -4.029011    1.858630
C      1.269241   -3.118960    0.797362
O      1.372353   -3.464011   -0.525724
C      1.707025   -4.813035   -0.826903
N      1.348090    0.621462    0.257933
C      2.639033    0.990429    0.604699
C      2.830966    2.261287    1.288414
C      2.160109    2.792348    2.375425
C      2.669213    4.066642    2.762005
C      3.737608    4.450351    1.983274
S      4.126384    3.276404    0.803643
O      3.578927    0.232238    0.365697
C      0.187705    1.489897    0.116606
C      0.356830    2.505291   -1.059793
O     -0.719913    2.626122   -1.864794
O      1.338770    3.198409   -1.283181
N     -0.919852    0.577638   -0.131942
C     -2.205142    0.701628    0.368373
C     -2.502582    1.867216    1.183461
C     -2.660807    1.899870    2.556339
C     -2.974171    3.205606    3.032539
C     -3.077641    4.115984    2.003967
S     -2.820118    3.389052    0.476550
O     -3.040834   -0.188541    0.234307
H     -4.422177   -2.057659   -1.467141
H     -4.200400   -2.244476   -3.210744
H     -3.928389   -0.648488   -2.423461
H     -2.448471   -2.057079   -4.717837
H     -0.765556   -0.919794   -6.115810
H      1.114902    0.292356   -5.047204
H      1.311309    0.385798   -2.618973
H     -1.016937   -1.518663   -0.273483
H      1.772544   -1.081333   -0.864737
H      0.737341   -0.276918    2.623688
H      0.816946   -1.897878    4.461580
H      1.176207   -4.302673    3.991923
H      1.442218   -5.092520    1.695231
H      1.814855   -4.894927   -1.912866
H      0.907973   -5.496322   -0.519610
H      2.665442   -5.092449   -0.374776
H      1.352088    2.288545    2.890058
H      2.287947    4.661086    3.582902
H      4.323522    5.356397    2.058932
H      0.022392    2.062409    1.028191
H     -0.452323    3.270227   -2.552815
H     -2.560065    1.021369    3.184946
H     -3.133010    3.460894    4.073571
H     -3.315685    5.168991    2.070993
