
  xtb     03162221443D
 xtb: 6.3.3 (4ae9cef)
 62 66  0     0  0            999 V2000
   -1.3843   -0.5744   -2.8652 C   0  0  0  0  0  0  0  0  0  0  0  0
   -2.4590   -0.8673   -2.0901 O   0  0  0  0  0  0  0  0  0  0  0  0
   -3.7428   -0.8542   -2.6603 C   0  0  0  0  0  0  0  0  0  0  0  0
   -1.4473   -0.2453   -4.2131 C   0  0  0  0  0  0  0  0  0  0  0  0
   -0.2861    0.0447   -4.9116 C   0  0  0  0  0  0  0  0  0  0  0  0
    0.9390    0.0094   -4.2764 C   0  0  0  0  0  0  0  0  0  0  0  0
    1.0082   -0.3152   -2.9299 C   0  0  0  0  0  0  0  0  0  0  0  0
   -0.1371   -0.6108   -2.2125 C   0  0  0  0  0  0  0  0  0  0  0  0
   -0.1589   -0.9305   -0.7377 C   0  0  0  0  0  0  0  0  0  0  0  0
    1.2013   -0.9419   -0.0273 C   0  0  0  0  0  0  0  0  0  0  0  0
    1.1004   -1.7434    1.2480 C   0  0  0  0  0  0  0  0  0  0  0  0
    0.9518   -1.1569    2.4899 C   0  0  0  0  0  0  0  0  0  0  0  0
    0.8209   -1.9320    3.6310 C   0  0  0  0  0  0  0  0  0  0  0  0
    0.8384   -3.3079    3.5245 C   0  0  0  0  0  0  0  0  0  0  0  0
    0.9859   -3.9162    2.2885 C   0  0  0  0  0  0  0  0  0  0  0  0
    1.1123   -3.1428    1.1431 C   0  0  0  0  0  0  0  0  0  0  0  0
    1.2472   -3.6364   -0.1200 O   0  0  0  0  0  0  0  0  0  0  0  0
    1.2846   -5.0316   -0.2978 C   0  0  0  0  0  0  0  0  0  0  0  0
    1.4228    0.4751    0.2381 N   0  0  0  0  0  0  0  0  0  0  0  0
    2.6856    0.9906    0.2266 C   0  0  0  0  0  0  0  0  0  0  0  0
    2.8195    2.4100    0.5991 C   0  0  0  0  0  0  0  0  0  0  0  0
    2.2137    3.1270    1.5937 C   0  0  0  0  0  0  0  0  0  0  0  0
    2.7006    4.4450    1.6910 C   0  0  0  0  0  0  0  0  0  0  0  0
    3.6690    4.7064    0.7726 C   0  0  0  0  0  0  0  0  0  0  0  0
    4.0187    3.3482   -0.2118 S   0  0  0  0  0  0  0  0  0  0  0  0
    3.6511    0.2953   -0.0209 O   0  0  0  0  0  0  0  0  0  0  0  0
    0.1735    1.1998    0.0901 C   0  0  0  0  0  0  0  0  0  0  0  0
    0.1938    2.0880   -1.1706 C   0  0  0  0  0  0  0  0  0  0  0  0
   -1.0393    2.3769   -1.5731 O   0  0  0  0  0  0  0  0  0  0  0  0
    1.1843    2.5053   -1.6986 O   0  0  0  0  0  0  0  0  0  0  0  0
   -0.8180    0.1685   -0.0312 N   0  0  0  0  0  0  0  0  0  0  0  0
   -1.8373   -0.0904    0.8393 C   0  0  0  0  0  0  0  0  0  0  0  0
   -2.3654    1.0451    1.6170 C   0  0  0  0  0  0  0  0  0  0  0  0
   -2.9327    0.9242    2.8560 C   0  0  0  0  0  0  0  0  0  0  0  0
   -3.4351    2.1401    3.3577 C   0  0  0  0  0  0  0  0  0  0  0  0
   -3.2669    3.1684    2.4853 C   0  0  0  0  0  0  0  0  0  0  0  0
   -2.4798    2.6779    1.0398 S   0  0  0  0  0  0  0  0  0  0  0  0
   -2.3281   -1.1951    0.9528 O   0  0  0  0  0  0  0  0  0  0  0  0
   -4.4183   -1.1243   -1.8502 H   0  0  0  0  0  0  0  0  0  0  0  0
   -3.8339   -1.5868   -3.4688 H   0  0  0  0  0  0  0  0  0  0  0  0
   -4.0061    0.1399   -3.0364 H   0  0  0  0  0  0  0  0  0  0  0  0
   -2.3953   -0.2128   -4.7267 H   0  0  0  0  0  0  0  0  0  0  0  0
   -0.3492    0.3003   -5.9590 H   0  0  0  0  0  0  0  0  0  0  0  0
    1.8428    0.2392   -4.8179 H   0  0  0  0  0  0  0  0  0  0  0  0
    1.9730   -0.3215   -2.4489 H   0  0  0  0  0  0  0  0  0  0  0  0
   -0.7359   -1.8405   -0.5586 H   0  0  0  0  0  0  0  0  0  0  0  0
    2.0104   -1.3474   -0.6378 H   0  0  0  0  0  0  0  0  0  0  0  0
    0.9495   -0.0800    2.5720 H   0  0  0  0  0  0  0  0  0  0  0  0
    0.7052   -1.4594    4.5944 H   0  0  0  0  0  0  0  0  0  0  0  0
    0.7360   -3.9224    4.4065 H   0  0  0  0  0  0  0  0  0  0  0  0
    0.9949   -4.9930    2.2307 H   0  0  0  0  0  0  0  0  0  0  0  0
    1.4070   -5.1856   -1.3688 H   0  0  0  0  0  0  0  0  0  0  0  0
    0.3531   -5.5029    0.0313 H   0  0  0  0  0  0  0  0  0  0  0  0
    2.1297   -5.4831    0.2312 H   0  0  0  0  0  0  0  0  0  0  0  0
    1.4761    2.7242    2.2660 H   0  0  0  0  0  0  0  0  0  0  0  0
    2.3457    5.1597    2.4121 H   0  0  0  0  0  0  0  0  0  0  0  0
    4.2002    5.6247    0.6192 H   0  0  0  0  0  0  0  0  0  0  0  0
   -0.0344    1.8574    0.9425 H   0  0  0  0  0  0  0  0  0  0  0  0
   -1.0185    2.9398   -2.3645 H   0  0  0  0  0  0  0  0  0  0  0  0
   -2.9705   -0.0148    3.3777 H   0  0  0  0  0  0  0  0  0  0  0  0
   -3.9054    2.2425    4.3189 H   0  0  0  0  0  0  0  0  0  0  0  0
   -3.5604    4.1931    2.5992 H   0  0  0  0  0  0  0  0  0  0  0  0
  1  2  1  0  0  0  0
  2  3  1  0  0  0  0
  1  4  4  0  0  0  0
  4  5  4  0  0  0  0
  5  6  4  0  0  0  0
  6  7  4  0  0  0  0
  1  8  4  0  0  0  0
  7  8  4  0  0  0  0
  8  9  1  0  0  0  0
  9 10  1  0  0  0  0
 10 11  1  0  0  0  0
 11 12  4  0  0  0  0
 12 13  4  0  0  0  0
 13 14  4  0  0  0  0
 14 15  4  0  0  0  0
 11 16  4  0  0  0  0
 15 16  4  0  0  0  0
 16 17  1  0  0  0  0
 17 18  1  0  0  0  0
 10 19  1  0  0  0  0
 19 20  1  0  0  0  0
 20 21  1  0  0  0  0
 21 22  2  0  0  0  0
 22 23  4  0  0  0  0
 23 24  2  0  0  0  0
 21 25  1  0  0  0  0
 24 25  1  0  0  0  0
 20 26  2  0  0  0  0
 19 27  1  0  0  0  0
 27 28  1  0  0  0  0
 28 29  1  0  0  0  0
 28 30  2  0  0  0  0
  9 31  1  0  0  0  0
 27 31  1  0  0  0  0
 31 32  1  0  0  0  0
 32 33  1  0  0  0  0
 33 34  2  0  0  0  0
 34 35  4  0  0  0  0
 35 36  2  0  0  0  0
 33 37  1  0  0  0  0
 36 37  1  0  0  0  0
 32 38  2  0  0  0  0
  3 39  1  0  0  0  0
  3 40  1  0  0  0  0
  3 41  1  0  0  0  0
  4 42  1  0  0  0  0
  5 43  1  0  0  0  0
  6 44  1  0  0  0  0
  7 45  1  0  0  0  0
  9 46  1  0  0  0  0
 10 47  1  0  0  0  0
 12 48  1  0  0  0  0
 13 49  1  0  0  0  0
 14 50  1  0  0  0  0
 15 51  1  0  0  0  0
 18 52  1  0  0  0  0
 18 53  1  0  0  0  0
 18 54  1  0  0  0  0
 22 55  1  0  0  0  0
 23 56  1  0  0  0  0
 24 57  1  0  0  0  0
 27 58  1  0  0  0  0
 29 59  1  0  0  0  0
 34 60  1  0  0  0  0
 35 61  1  0  0  0  0
 36 62  1  0  0  0  0
M  END
