84

C     -2.004009   -3.737980   -2.185384
C     -2.322335   -4.891211   -2.905677
C     -1.853943   -6.133246   -2.483804
C     -1.070287   -6.224581   -1.336513
C     -0.752953   -5.072716   -0.613138
C     -1.216696   -3.812448   -1.025926
C     -0.821427   -2.582657   -0.225740
C      0.479803   -1.925095   -0.775528
C      1.797594   -2.486230   -0.274711
C      2.027506   -2.767348    1.082554
C      3.261286   -3.258749    1.512892
C      4.285236   -3.477119    0.595323
C      4.077607   -3.201168   -0.752872
C      2.844239   -2.710583   -1.186253
N      0.268468   -0.475145   -0.585789
C      0.831452    0.138463    0.530474
C      2.211724    0.673947    0.359454
C      2.738577    0.956916   -0.900921
C      4.025984    1.492629   -1.019573
C      4.821059    1.760685    0.112223
C      6.231586    2.350237   -0.060512
C      7.097059    1.383180   -0.898292
C      6.974664    2.592520    1.272260
C      6.140044    3.709758   -0.786076
C      4.267726    1.472437    1.370545
C      2.975665    0.946501    1.494955
O      0.226758    0.299681    1.585838
C     -1.169583   -0.260779   -0.714968
C     -1.555403    0.054480   -2.192832
O     -0.515374    0.432612   -2.974496
O     -2.675668    0.021962   -2.681694
N     -1.801528   -1.495729   -0.267426
C     -2.935568   -1.567143    0.522103
C     -3.721840   -0.338481    0.727982
C     -4.613229    0.104259   -0.244296
C     -5.331145    1.287621   -0.037291
C     -5.182478    2.036190    1.146076
C     -5.962500    3.338071    1.408365
C     -4.974340    4.491872    1.691719
C     -6.851480    3.781746    0.226687
C     -6.885603    3.145397    2.630549
C     -4.286757    1.544556    2.119661
C     -3.563531    0.367682    1.917515
O     -3.301972   -2.582245    1.104459
H     -2.393867   -2.785838   -2.533712
H     -2.943788   -4.819574   -3.794154
H     -2.108057   -7.031509   -3.042462
H     -0.709664   -7.192037   -0.999142
H     -0.143225   -5.168248    0.283259
H     -0.722123   -2.859244    0.829945
H      0.471814   -2.049138   -1.868336
H      1.258451   -2.580905    1.832047
H      3.425250   -3.459331    2.568291
H      5.247286   -3.851548    0.933241
H      4.879026   -3.364499   -1.469995
H      2.709061   -2.495281   -2.245048
H      2.158257    0.775359   -1.800659
H      4.397807    1.701579   -2.020174
H      8.119558    1.762379   -1.004722
H      6.700176    1.241191   -1.909664
H      7.155558    0.395089   -0.424907
H      7.112251    1.662189    1.834656
H      6.435345    3.300791    1.912586
H      7.972537    3.012164    1.097772
H      7.130874    4.165478   -0.896984
H      5.508455    4.412443   -0.228538
H      5.719291    3.615097   -1.792873
H      4.821829    1.646624    2.287526
H      2.575109    0.737628    2.483934
H     -1.485446    0.608309   -0.130374
H     -0.930219    0.632319   -3.840935
H     -4.753075   -0.462274   -1.161518
H     -6.012063    1.600068   -0.824906
H     -5.502954    5.444714    1.817508
H     -4.261695    4.611517    0.867008
H     -4.392215    4.327714    2.607754
H     -7.384213    4.711039    0.460724
H     -7.610827    3.028281   -0.013389
H     -6.257226    3.968789   -0.675946
H     -6.320717    2.936730    3.545684
H     -7.484296    4.045350    2.819431
H     -7.576560    2.309380    2.473863
H     -4.142789    2.074658    3.059963
H     -2.877305    0.009799    2.681324
