
  xtb     03172200413D
 xtb: 6.3.3 (4ae9cef)
 78 84  0     0  0            999 V2000
    2.7019    2.4703    0.0626 C   0  0  0  0  0  0  0  0  0  0  0  0
    3.8197    2.9867   -0.5273 C   0  0  0  0  0  0  0  0  0  0  0  0
    4.4347    2.3300   -1.6131 C   0  0  0  0  0  0  0  0  0  0  0  0
    5.5944    2.8313   -2.2394 C   0  0  0  0  0  0  0  0  0  0  0  0
    6.1626    2.1683   -3.2908 C   0  0  0  0  0  0  0  0  0  0  0  0
    5.5972    0.9738   -3.7647 C   0  0  0  0  0  0  0  0  0  0  0  0
    4.4740    0.4621   -3.1786 C   0  0  0  0  0  0  0  0  0  0  0  0
    3.8641    1.1215   -2.0907 C   0  0  0  0  0  0  0  0  0  0  0  0
    2.7063    0.6192   -1.4665 C   0  0  0  0  0  0  0  0  0  0  0  0
    2.1367    1.2698   -0.4035 C   0  0  0  0  0  0  0  0  0  0  0  0
    0.8830    0.7450    0.2407 C   0  0  0  0  0  0  0  0  0  0  0  0
   -0.3542    0.9567   -0.6536 C   0  0  0  0  0  0  0  0  0  0  0  0
   -1.0619    2.2431   -0.3308 C   0  0  0  0  0  0  0  0  0  0  0  0
   -1.6816    2.4200    0.8790 C   0  0  0  0  0  0  0  0  0  0  0  0
   -2.3240    3.6309    1.1992 C   0  0  0  0  0  0  0  0  0  0  0  0
   -2.9867    3.8251    2.4296 C   0  0  0  0  0  0  0  0  0  0  0  0
   -3.6010    5.0127    2.7111 C   0  0  0  0  0  0  0  0  0  0  0  0
   -3.5798    6.0613    1.7776 C   0  0  0  0  0  0  0  0  0  0  0  0
   -2.9452    5.9041    0.5774 C   0  0  0  0  0  0  0  0  0  0  0  0
   -2.3035    4.6905    0.2552 C   0  0  0  0  0  0  0  0  0  0  0  0
   -1.6416    4.4900   -0.9734 C   0  0  0  0  0  0  0  0  0  0  0  0
   -1.0397    3.2985   -1.2598 C   0  0  0  0  0  0  0  0  0  0  0  0
   -1.1615   -0.2269   -0.3793 N   0  0  0  0  0  0  0  0  0  0  0  0
   -2.4727   -0.3183   -0.7413 C   0  0  0  0  0  0  0  0  0  0  0  0
   -3.1174   -1.6258   -0.3971 C   0  0  0  0  0  0  0  0  0  0  0  0
   -3.5564   -1.8842    0.9025 C   0  0  0  0  0  0  0  0  0  0  0  0
   -3.4043   -0.8521    1.9805 C   0  0  0  0  0  0  0  0  0  0  0  0
   -4.1556   -3.1080    1.1665 C   0  0  0  0  0  0  0  0  0  0  0  0
   -4.3282   -4.0491    0.1670 C   0  0  0  0  0  0  0  0  0  0  0  0
   -3.9223   -3.7697   -1.1255 C   0  0  0  0  0  0  0  0  0  0  0  0
   -3.3234   -2.5556   -1.4062 C   0  0  0  0  0  0  0  0  0  0  0  0
   -3.0560    0.5910   -1.2891 O   0  0  0  0  0  0  0  0  0  0  0  0
   -0.3360   -1.3263    0.0595 C   0  0  0  0  0  0  0  0  0  0  0  0
   -0.1341   -2.3694   -1.0598 C   0  0  0  0  0  0  0  0  0  0  0  0
    0.5028   -1.8604   -2.1115 O   0  0  0  0  0  0  0  0  0  0  0  0
   -0.5347   -3.4977   -1.0071 O   0  0  0  0  0  0  0  0  0  0  0  0
    0.9043   -0.6976    0.4432 N   0  0  0  0  0  0  0  0  0  0  0  0
    1.9626   -1.3272    1.0230 C   0  0  0  0  0  0  0  0  0  0  0  0
    1.8622   -2.8215    0.9849 C   0  0  0  0  0  0  0  0  0  0  0  0
    2.5546   -3.4702   -0.0323 C   0  0  0  0  0  0  0  0  0  0  0  0
    2.4952   -4.8453   -0.1497 C   0  0  0  0  0  0  0  0  0  0  0  0
    1.7458   -5.5770    0.7562 C   0  0  0  0  0  0  0  0  0  0  0  0
    1.0811   -4.9346    1.7828 C   0  0  0  0  0  0  0  0  0  0  0  0
    1.1326   -3.5524    1.9184 C   0  0  0  0  0  0  0  0  0  0  0  0
    0.4207   -2.8875    3.0595 C   0  0  0  0  0  0  0  0  0  0  0  0
    2.9137   -0.7186    1.4607 O   0  0  0  0  0  0  0  0  0  0  0  0
    2.2403    2.9785    0.8966 H   0  0  0  0  0  0  0  0  0  0  0  0
    4.2531    3.9075   -0.1644 H   0  0  0  0  0  0  0  0  0  0  0  0
    6.0267    3.7506   -1.8706 H   0  0  0  0  0  0  0  0  0  0  0  0
    7.0515    2.5573   -3.7656 H   0  0  0  0  0  0  0  0  0  0  0  0
    6.0598    0.4633   -4.5970 H   0  0  0  0  0  0  0  0  0  0  0  0
    4.0357   -0.4579   -3.5399 H   0  0  0  0  0  0  0  0  0  0  0  0
    2.2741   -0.2994   -1.8367 H   0  0  0  0  0  0  0  0  0  0  0  0
    0.7387    1.2430    1.2098 H   0  0  0  0  0  0  0  0  0  0  0  0
   -0.0517    0.9548   -1.7101 H   0  0  0  0  0  0  0  0  0  0  0  0
   -1.6980    1.6203    1.6063 H   0  0  0  0  0  0  0  0  0  0  0  0
   -3.0022    3.0153    3.1457 H   0  0  0  0  0  0  0  0  0  0  0  0
   -4.1089    5.1542    3.6540 H   0  0  0  0  0  0  0  0  0  0  0  0
   -4.0711    6.9929    2.0176 H   0  0  0  0  0  0  0  0  0  0  0  0
   -2.9274    6.7077   -0.1450 H   0  0  0  0  0  0  0  0  0  0  0  0
   -1.6236    5.2974   -1.6912 H   0  0  0  0  0  0  0  0  0  0  0  0
   -0.5410    3.1525   -2.2067 H   0  0  0  0  0  0  0  0  0  0  0  0
   -4.0102   -1.1110    2.8456 H   0  0  0  0  0  0  0  0  0  0  0  0
   -3.7172    0.1232    1.6110 H   0  0  0  0  0  0  0  0  0  0  0  0
   -2.3658   -0.7742    2.3059 H   0  0  0  0  0  0  0  0  0  0  0  0
   -4.4979   -3.3223    2.1692 H   0  0  0  0  0  0  0  0  0  0  0  0
   -4.7928   -4.9966    0.3961 H   0  0  0  0  0  0  0  0  0  0  0  0
   -4.0709   -4.4928   -1.9124 H   0  0  0  0  0  0  0  0  0  0  0  0
   -3.0120   -2.3204   -2.4136 H   0  0  0  0  0  0  0  0  0  0  0  0
   -0.8058   -1.8665    0.8950 H   0  0  0  0  0  0  0  0  0  0  0  0
    0.6001   -2.5275   -2.8114 H   0  0  0  0  0  0  0  0  0  0  0  0
    3.1403   -2.8826   -0.7255 H   0  0  0  0  0  0  0  0  0  0  0  0
    3.0297   -5.3445   -0.9439 H   0  0  0  0  0  0  0  0  0  0  0  0
    1.6866   -6.6512    0.6658 H   0  0  0  0  0  0  0  0  0  0  0  0
    0.5086   -5.5094    2.4963 H   0  0  0  0  0  0  0  0  0  0  0  0
    0.7614   -3.3105    4.0037 H   0  0  0  0  0  0  0  0  0  0  0  0
    0.6154   -1.8176    3.0775 H   0  0  0  0  0  0  0  0  0  0  0  0
   -0.6542   -3.0602    2.9916 H   0  0  0  0  0  0  0  0  0  0  0  0
  1  2  2  0  0  0  0
  2  3  4  0  0  0  0
  3  4  4  0  0  0  0
  4  5  2  0  0  0  0
  5  6  4  0  0  0  0
  6  7  2  0  0  0  0
  3  8  4  0  0  0  0
  7  8  4  0  0  0  0
  8  9  4  0  0  0  0
  1 10  4  0  0  0  0
  9 10  2  0  0  0  0
 10 11  1  0  0  0  0
 11 12  1  0  0  0  0
 12 13  1  0  0  0  0
 13 14  2  0  0  0  0
 14 15  4  0  0  0  0
 15 16  4  0  0  0  0
 16 17  2  0  0  0  0
 17 18  4  0  0  0  0
 18 19  2  0  0  0  0
 15 20  4  0  0  0  0
 19 20  4  0  0  0  0
 20 21  4  0  0  0  0
 13 22  4  0  0  0  0
 21 22  2  0  0  0  0
 12 23  1  0  0  0  0
 23 24  1  0  0  0  0
 24 25  1  0  0  0  0
 25 26  4  0  0  0  0
 26 27  1  0  0  0  0
 26 28  4  0  0  0  0
 28 29  4  0  0  0  0
 29 30  4  0  0  0  0
 25 31  4  0  0  0  0
 30 31  4  0  0  0  0
 24 32  2  0  0  0  0
 23 33  1  0  0  0  0
 33 34  1  0  0  0  0
 34 35  1  0  0  0  0
 34 36  2  0  0  0  0
 11 37  1  0  0  0  0
 33 37  1  0  0  0  0
 37 38  1  0  0  0  0
 38 39  1  0  0  0  0
 39 40  4  0  0  0  0
 40 41  4  0  0  0  0
 41 42  4  0  0  0  0
 42 43  4  0  0  0  0
 39 44  4  0  0  0  0
 43 44  4  0  0  0  0
 44 45  1  0  0  0  0
 38 46  2  0  0  0  0
  1 47  1  0  0  0  0
  2 48  1  0  0  0  0
  4 49  1  0  0  0  0
  5 50  1  0  0  0  0
  6 51  1  0  0  0  0
  7 52  1  0  0  0  0
  9 53  1  0  0  0  0
 11 54  1  0  0  0  0
 12 55  1  0  0  0  0
 14 56  1  0  0  0  0
 16 57  1  0  0  0  0
 17 58  1  0  0  0  0
 18 59  1  0  0  0  0
 19 60  1  0  0  0  0
 21 61  1  0  0  0  0
 22 62  1  0  0  0  0
 27 63  1  0  0  0  0
 27 64  1  0  0  0  0
 27 65  1  0  0  0  0
 28 66  1  0  0  0  0
 29 67  1  0  0  0  0
 30 68  1  0  0  0  0
 31 69  1  0  0  0  0
 33 70  1  0  0  0  0
 35 71  1  0  0  0  0
 40 72  1  0  0  0  0
 41 73  1  0  0  0  0
 42 74  1  0  0  0  0
 43 75  1  0  0  0  0
 45 76  1  0  0  0  0
 45 77  1  0  0  0  0
 45 78  1  0  0  0  0
M  END
