
  xtb     03162223523D
 xtb: 6.3.3 (4ae9cef)
 78 84  0     0  0            999 V2000
   -3.6858   -3.9342    0.0828 C   0  0  0  0  0  0  0  0  0  0  0  0
   -4.4444   -2.9231   -0.4332 C   0  0  0  0  0  0  0  0  0  0  0  0
   -3.9272   -1.6211   -0.4769 C   0  0  0  0  0  0  0  0  0  0  0  0
   -2.6771   -1.3524    0.0083 C   0  0  0  0  0  0  0  0  0  0  0  0
   -1.8716   -2.3658    0.5752 C   0  0  0  0  0  0  0  0  0  0  0  0
   -2.3922   -3.6901    0.5911 C   0  0  0  0  0  0  0  0  0  0  0  0
   -1.6121   -4.7426    1.1113 C   0  0  0  0  0  0  0  0  0  0  0  0
   -0.3621   -4.5015    1.6029 C   0  0  0  0  0  0  0  0  0  0  0  0
    0.1437   -3.1964    1.6169 C   0  0  0  0  0  0  0  0  0  0  0  0
   -0.5822   -2.1392    1.1290 C   0  0  0  0  0  0  0  0  0  0  0  0
    0.0425   -0.7676    1.1951 C   0  0  0  0  0  0  0  0  0  0  0  0
    0.4439   -0.2171   -0.1901 C   0  0  0  0  0  0  0  0  0  0  0  0
    1.9124   -0.4167   -0.4769 C   0  0  0  0  0  0  0  0  0  0  0  0
    2.8191    0.2199    0.3372 C   0  0  0  0  0  0  0  0  0  0  0  0
    4.1951    0.1507    0.0939 C   0  0  0  0  0  0  0  0  0  0  0  0
    4.6601   -0.5418   -0.9873 C   0  0  0  0  0  0  0  0  0  0  0  0
    3.7681   -1.2228   -1.8397 C   0  0  0  0  0  0  0  0  0  0  0  0
    2.3705   -1.1993   -1.5700 C   0  0  0  0  0  0  0  0  0  0  0  0
    1.5245   -1.9442   -2.4211 C   0  0  0  0  0  0  0  0  0  0  0  0
    2.0220   -2.6243   -3.4974 C   0  0  0  0  0  0  0  0  0  0  0  0
    3.3936   -2.6034   -3.7863 C   0  0  0  0  0  0  0  0  0  0  0  0
    4.2478   -1.9253   -2.9654 C   0  0  0  0  0  0  0  0  0  0  0  0
    0.0931    1.1952   -0.1038 N   0  0  0  0  0  0  0  0  0  0  0  0
    0.6487    2.2354   -0.7648 C   0  0  0  0  0  0  0  0  0  0  0  0
    1.4373    1.8760   -1.9819 C   0  0  0  0  0  0  0  0  0  0  0  0
    0.8342    1.2081   -3.0406 C   0  0  0  0  0  0  0  0  0  0  0  0
    1.5709    0.8735   -4.1635 C   0  0  0  0  0  0  0  0  0  0  0  0
    2.9170    1.1824   -4.2288 C   0  0  0  0  0  0  0  0  0  0  0  0
    3.5101    1.8701   -3.1769 C   0  0  0  0  0  0  0  0  0  0  0  0
    4.9724    2.2019   -3.2668 C   0  0  0  0  0  0  0  0  0  0  0  0
    5.2229    3.1793   -4.1565 F   0  0  0  0  0  0  0  0  0  0  0  0
    5.4971    2.6051   -2.1026 F   0  0  0  0  0  0  0  0  0  0  0  0
    5.7058    1.1455   -3.6642 F   0  0  0  0  0  0  0  0  0  0  0  0
    2.7728    2.2458   -2.0665 C   0  0  0  0  0  0  0  0  0  0  0  0
    0.4711    3.3786   -0.3875 O   0  0  0  0  0  0  0  0  0  0  0  0
   -0.7800    1.4895    1.0115 C   0  0  0  0  0  0  0  0  0  0  0  0
   -0.2199    2.6502    1.8630 C   0  0  0  0  0  0  0  0  0  0  0  0
    1.0506    2.4375    2.2088 O   0  0  0  0  0  0  0  0  0  0  0  0
   -0.8824    3.5629    2.2618 O   0  0  0  0  0  0  0  0  0  0  0  0
   -0.8531    0.2471    1.7418 N   0  0  0  0  0  0  0  0  0  0  0  0
   -1.4220    0.0646    2.9640 C   0  0  0  0  0  0  0  0  0  0  0  0
   -2.3731    1.1446    3.3746 C   0  0  0  0  0  0  0  0  0  0  0  0
   -3.5213    1.3659    2.6278 C   0  0  0  0  0  0  0  0  0  0  0  0
   -4.4110    2.3537    3.0219 C   0  0  0  0  0  0  0  0  0  0  0  0
   -5.6586    2.5627    2.2116 C   0  0  0  0  0  0  0  0  0  0  0  0
   -6.1857    3.7849    2.3532 F   0  0  0  0  0  0  0  0  0  0  0  0
   -5.4517    2.3834    0.8951 F   0  0  0  0  0  0  0  0  0  0  0  0
   -6.6326    1.6928    2.5503 F   0  0  0  0  0  0  0  0  0  0  0  0
   -4.1706    3.1165    4.1560 C   0  0  0  0  0  0  0  0  0  0  0  0
   -3.0368    2.8701    4.9097 C   0  0  0  0  0  0  0  0  0  0  0  0
   -2.1461    1.8825    4.5289 C   0  0  0  0  0  0  0  0  0  0  0  0
   -1.1998   -0.9157    3.6396 O   0  0  0  0  0  0  0  0  0  0  0  0
   -4.0658   -4.9453    0.1131 H   0  0  0  0  0  0  0  0  0  0  0  0
   -5.4363   -3.1163   -0.8132 H   0  0  0  0  0  0  0  0  0  0  0  0
   -4.5247   -0.8256   -0.8983 H   0  0  0  0  0  0  0  0  0  0  0  0
   -2.3060   -0.3429   -0.0532 H   0  0  0  0  0  0  0  0  0  0  0  0
   -2.0253   -5.7408    1.1145 H   0  0  0  0  0  0  0  0  0  0  0  0
    0.2393   -5.3057    1.9989 H   0  0  0  0  0  0  0  0  0  0  0  0
    1.1244   -3.0212    2.0342 H   0  0  0  0  0  0  0  0  0  0  0  0
    0.9295   -0.8346    1.8389 H   0  0  0  0  0  0  0  0  0  0  0  0
   -0.1733   -0.6888   -0.9602 H   0  0  0  0  0  0  0  0  0  0  0  0
    2.4662    0.8175    1.1650 H   0  0  0  0  0  0  0  0  0  0  0  0
    4.8774    0.6661    0.7522 H   0  0  0  0  0  0  0  0  0  0  0  0
    5.7163   -0.5772   -1.2087 H   0  0  0  0  0  0  0  0  0  0  0  0
    0.4657   -2.0009   -2.2204 H   0  0  0  0  0  0  0  0  0  0  0  0
    1.3544   -3.1871   -4.1331 H   0  0  0  0  0  0  0  0  0  0  0  0
    3.7658   -3.1350   -4.6489 H   0  0  0  0  0  0  0  0  0  0  0  0
    5.3093   -1.9110   -3.1632 H   0  0  0  0  0  0  0  0  0  0  0  0
   -0.2146    0.9571   -2.9888 H   0  0  0  0  0  0  0  0  0  0  0  0
    1.0989    0.3576   -4.9845 H   0  0  0  0  0  0  0  0  0  0  0  0
    3.5079    0.8973   -5.0853 H   0  0  0  0  0  0  0  0  0  0  0  0
    3.2316    2.7953   -1.2596 H   0  0  0  0  0  0  0  0  0  0  0  0
   -1.7682    1.8280    0.6550 H   0  0  0  0  0  0  0  0  0  0  0  0
    1.3892    3.1919    2.7172 H   0  0  0  0  0  0  0  0  0  0  0  0
   -3.7319    0.7643    1.7557 H   0  0  0  0  0  0  0  0  0  0  0  0
   -4.8652    3.8910    4.4419 H   0  0  0  0  0  0  0  0  0  0  0  0
   -2.8483    3.4531    5.7974 H   0  0  0  0  0  0  0  0  0  0  0  0
   -1.2645    1.6818    5.1189 H   0  0  0  0  0  0  0  0  0  0  0  0
  1  2  2  0  0  0  0
  2  3  4  0  0  0  0
  3  4  2  0  0  0  0
  4  5  4  0  0  0  0
  1  6  4  0  0  0  0
  5  6  4  0  0  0  0
  6  7  4  0  0  0  0
  7  8  2  0  0  0  0
  8  9  4  0  0  0  0
  5 10  4  0  0  0  0
  9 10  2  0  0  0  0
 10 11  1  0  0  0  0
 11 12  1  0  0  0  0
 12 13  1  0  0  0  0
 13 14  2  0  0  0  0
 14 15  4  0  0  0  0
 15 16  2  0  0  0  0
 16 17  4  0  0  0  0
 13 18  4  0  0  0  0
 17 18  4  0  0  0  0
 18 19  4  0  0  0  0
 19 20  2  0  0  0  0
 20 21  4  0  0  0  0
 17 22  4  0  0  0  0
 21 22  2  0  0  0  0
 12 23  1  0  0  0  0
 23 24  4  0  0  0  0
 24 25  1  0  0  0  0
 25 26  4  0  0  0  0
 26 27  4  0  0  0  0
 27 28  4  0  0  0  0
 28 29  4  0  0  0  0
 29 30  1  0  0  0  0
 30 31  1  0  0  0  0
 30 32  1  0  0  0  0
 30 33  1  0  0  0  0
 25 34  4  0  0  0  0
 29 34  4  0  0  0  0
 24 35  2  0  0  0  0
 23 36  1  0  0  0  0
 36 37  1  0  0  0  0
 37 38  1  0  0  0  0
 37 39  2  0  0  0  0
 11 40  1  0  0  0  0
 36 40  1  0  0  0  0
 40 41  4  0  0  0  0
 41 42  1  0  0  0  0
 42 43  4  0  0  0  0
 43 44  4  0  0  0  0
 44 45  1  0  0  0  0
 45 46  1  0  0  0  0
 45 47  1  0  0  0  0
 45 48  1  0  0  0  0
 44 49  4  0  0  0  0
 49 50  4  0  0  0  0
 42 51  4  0  0  0  0
 50 51  4  0  0  0  0
 41 52  2  0  0  0  0
  1 53  1  0  0  0  0
  2 54  1  0  0  0  0
  3 55  1  0  0  0  0
  4 56  1  0  0  0  0
  7 57  1  0  0  0  0
  8 58  1  0  0  0  0
  9 59  1  0  0  0  0
 11 60  1  0  0  0  0
 12 61  1  0  0  0  0
 14 62  1  0  0  0  0
 15 63  1  0  0  0  0
 16 64  1  0  0  0  0
 19 65  1  0  0  0  0
 20 66  1  0  0  0  0
 21 67  1  0  0  0  0
 22 68  1  0  0  0  0
 26 69  1  0  0  0  0
 27 70  1  0  0  0  0
 28 71  1  0  0  0  0
 34 72  1  0  0  0  0
 36 73  1  0  0  0  0
 38 74  1  0  0  0  0
 43 75  1  0  0  0  0
 49 76  1  0  0  0  0
 50 77  1  0  0  0  0
 51 78  1  0  0  0  0
M  END
