66

C      3.067880   -3.084172   -3.135406
C      3.448448   -2.036954   -3.970017
C      3.216735   -0.730337   -3.572060
C      2.593220   -0.471162   -2.348307
C      2.175719   -1.509407   -1.477952
C      2.449516   -2.838433   -1.897339
C      2.118028   -3.917576   -1.071373
C      1.520182   -3.713144    0.166654
C      1.227522   -2.423802    0.585384
C      1.518363   -1.307014   -0.220980
C      1.060106    0.069572    0.250506
C     -0.492289    0.215196    0.329629
C     -1.150422    0.512968   -1.008230
C     -0.670569    1.590727   -1.785011
C     -1.216650    1.886272   -3.029328
C     -2.262753    1.114684   -3.523008
C     -2.786211    0.044391   -2.779749
C     -2.237731   -0.283684   -1.510016
C     -2.829745   -1.387053   -0.832600
C     -3.909594   -2.105340   -1.366047
C     -4.426305   -1.756883   -2.603453
C     -3.859284   -0.696108   -3.310879
N     -0.651303    1.196940    1.420867
C     -1.838763    1.706386    1.921872
C     -2.829334    2.201203    0.984933
C     -2.700972    3.379727    0.276943
Br    -1.198432    4.578422    0.380210
S     -4.035307    3.722959   -0.716097
C     -4.871194    2.334485   -0.160604
C     -4.134157    1.627431    0.769933
O     -2.039346    1.806445    3.127922
C      0.428288    0.996972    2.382129
C      0.031726   -0.025227    3.486767
O      0.250728    0.429941    4.740945
O     -0.420874   -1.150061    3.311901
N      1.525963    0.433898    1.594568
C      2.840769    0.852920    1.751176
C      3.247499    1.242250    3.093604
C      3.609150    2.524773    3.454128
Br     3.566640    4.046977    2.286256
S      4.048625    2.673062    5.087597
C      3.811221    1.000837    5.354376
C      3.388503    0.351915    4.213275
O      3.624931    0.923552    0.811936
H      3.267171   -4.104823   -3.454676
H      3.931482   -2.240476   -4.919582
H      3.536241    0.101782   -4.198102
H      2.472457    0.574407   -2.079981
H      2.338703   -4.936484   -1.386395
H      1.273174   -4.566483    0.795398
H      0.739182   -2.302838    1.550743
H      1.467330    0.849453   -0.393084
H     -0.905503   -0.704764    0.745980
H      0.140089    2.224626   -1.427352
H     -0.835101    2.723710   -3.611423
H     -2.673523    1.361432   -4.501090
H     -2.483383   -1.719617    0.142085
H     -4.342671   -2.930320   -0.798741
H     -5.264334   -2.308617   -3.023567
H     -4.267268   -0.439221   -4.285026
H     -5.867966    2.113417   -0.525788
H     -4.498929    0.725767    1.250621
H      0.682230    1.958481    2.837450
H     -0.118460   -0.271771    5.319394
H      4.004242    0.577842    6.328486
H      3.196305   -0.714051    4.169592
