
  xtb     03172200083D
 xtb: 6.3.3 (4ae9cef)
 66 72  0     0  0            999 V2000
    1.8937   -3.8358   -2.7019 C   0  0  0  0  0  0  0  0  0  0  0  0
    1.7850   -3.0715   -3.8279 C   0  0  0  0  0  0  0  0  0  0  0  0
    1.5500   -1.6942   -3.7141 C   0  0  0  0  0  0  0  0  0  0  0  0
    1.4374   -1.1050   -2.4860 C   0  0  0  0  0  0  0  0  0  0  0  0
    1.5435   -1.8626   -1.2983 C   0  0  0  0  0  0  0  0  0  0  0  0
    1.7674   -3.2623   -1.4190 C   0  0  0  0  0  0  0  0  0  0  0  0
    1.8410   -4.0608   -0.2593 C   0  0  0  0  0  0  0  0  0  0  0  0
    1.6664   -3.5082    0.9766 C   0  0  0  0  0  0  0  0  0  0  0  0
    1.4359   -2.1329    1.1043 C   0  0  0  0  0  0  0  0  0  0  0  0
    1.4072   -1.3129    0.0044 C   0  0  0  0  0  0  0  0  0  0  0  0
    1.1312    0.1609    0.1868 C   0  0  0  0  0  0  0  0  0  0  0  0
   -0.3913    0.4104    0.2281 C   0  0  0  0  0  0  0  0  0  0  0  0
   -0.9136    1.1058   -1.0040 C   0  0  0  0  0  0  0  0  0  0  0  0
   -0.6529    2.4451   -1.1591 C   0  0  0  0  0  0  0  0  0  0  0  0
   -1.1641    3.1656   -2.2456 C   0  0  0  0  0  0  0  0  0  0  0  0
   -1.9482    2.5368   -3.1695 C   0  0  0  0  0  0  0  0  0  0  0  0
   -2.2121    1.1551   -3.0687 C   0  0  0  0  0  0  0  0  0  0  0  0
   -1.6692    0.4090   -1.9857 C   0  0  0  0  0  0  0  0  0  0  0  0
   -1.9072   -0.9829   -1.9560 C   0  0  0  0  0  0  0  0  0  0  0  0
   -2.6648   -1.5915   -2.9171 C   0  0  0  0  0  0  0  0  0  0  0  0
   -3.2315   -0.8458   -3.9602 C   0  0  0  0  0  0  0  0  0  0  0  0
   -3.0028    0.4979   -4.0348 C   0  0  0  0  0  0  0  0  0  0  0  0
   -0.5892    1.2086    1.4268 N   0  0  0  0  0  0  0  0  0  0  0  0
   -1.7812    1.4841    2.0012 C   0  0  0  0  0  0  0  0  0  0  0  0
   -2.9560    1.1939    1.1266 C   0  0  0  0  0  0  0  0  0  0  0  0
   -3.6382    2.1487    0.4318 C   0  0  0  0  0  0  0  0  0  0  0  0
   -3.2825    3.9840    0.4073 Br  0  0  0  0  0  0  0  0  0  0  0  0
   -4.9259    1.4897   -0.5176 S   0  0  0  0  0  0  0  0  0  0  0  0
   -4.5610   -0.0851    0.0608 C   0  0  0  0  0  0  0  0  0  0  0  0
   -3.5078   -0.0951    0.9155 C   0  0  0  0  0  0  0  0  0  0  0  0
   -1.8594    1.9512    3.1187 O   0  0  0  0  0  0  0  0  0  0  0  0
    0.6230    1.4202    2.1854 C   0  0  0  0  0  0  0  0  0  0  0  0
    0.4121    0.8920    3.6212 C   0  0  0  0  0  0  0  0  0  0  0  0
    0.6499    1.8234    4.5312 O   0  0  0  0  0  0  0  0  0  0  0  0
    0.1112   -0.2436    3.8628 O   0  0  0  0  0  0  0  0  0  0  0  0
    1.6200    0.6791    1.4580 N   0  0  0  0  0  0  0  0  0  0  0  0
    2.9242    0.5370    1.7988 C   0  0  0  0  0  0  0  0  0  0  0  0
    3.2788    1.1101    3.1340 C   0  0  0  0  0  0  0  0  0  0  0  0
    3.5171    2.4299    3.3788 C   0  0  0  0  0  0  0  0  0  0  0  0
    3.3840    3.8346    2.1431 Br  0  0  0  0  0  0  0  0  0  0  0  0
    3.9752    2.7359    5.0186 S   0  0  0  0  0  0  0  0  0  0  0  0
    3.8537    1.0591    5.3732 C   0  0  0  0  0  0  0  0  0  0  0  0
    3.4893    0.3221    4.2940 C   0  0  0  0  0  0  0  0  0  0  0  0
    3.7316   -0.0238    1.0942 O   0  0  0  0  0  0  0  0  0  0  0  0
    2.0724   -4.8993   -2.7737 H   0  0  0  0  0  0  0  0  0  0  0  0
    1.8778   -3.5181   -4.8068 H   0  0  0  0  0  0  0  0  0  0  0  0
    1.4575   -1.0952   -4.6080 H   0  0  0  0  0  0  0  0  0  0  0  0
    1.2506   -0.0436   -2.4381 H   0  0  0  0  0  0  0  0  0  0  0  0
    2.0247   -5.1198   -0.3699 H   0  0  0  0  0  0  0  0  0  0  0  0
    1.7031   -4.1211    1.8648 H   0  0  0  0  0  0  0  0  0  0  0  0
    1.2795   -1.7197    2.0906 H   0  0  0  0  0  0  0  0  0  0  0  0
    1.6071    0.7387   -0.6135 H   0  0  0  0  0  0  0  0  0  0  0  0
   -0.9015   -0.5475    0.3705 H   0  0  0  0  0  0  0  0  0  0  0  0
   -0.0633    2.9652   -0.4179 H   0  0  0  0  0  0  0  0  0  0  0  0
   -0.9504    4.2200   -2.3261 H   0  0  0  0  0  0  0  0  0  0  0  0
   -2.3736    3.0860   -3.9964 H   0  0  0  0  0  0  0  0  0  0  0  0
   -1.4697   -1.5929   -1.1813 H   0  0  0  0  0  0  0  0  0  0  0  0
   -2.8269   -2.6583   -2.8768 H   0  0  0  0  0  0  0  0  0  0  0  0
   -3.8357   -1.3428   -4.7042 H   0  0  0  0  0  0  0  0  0  0  0  0
   -3.4179    1.0834   -4.8423 H   0  0  0  0  0  0  0  0  0  0  0  0
   -5.1535   -0.9154   -0.2668 H   0  0  0  0  0  0  0  0  0  0  0  0
   -3.1392   -0.9794    1.4032 H   0  0  0  0  0  0  0  0  0  0  0  0
    0.8506    2.4976    2.2473 H   0  0  0  0  0  0  0  0  0  0  0  0
    0.4069    1.5156    5.4193 H   0  0  0  0  0  0  0  0  0  0  0  0
    4.0677    0.7157    6.3655 H   0  0  0  0  0  0  0  0  0  0  0  0
    3.3641   -0.7452    4.3034 H   0  0  0  0  0  0  0  0  0  0  0  0
  1  2  2  0  0  0  0
  2  3  4  0  0  0  0
  3  4  2  0  0  0  0
  4  5  4  0  0  0  0
  1  6  4  0  0  0  0
  5  6  4  0  0  0  0
  6  7  4  0  0  0  0
  7  8  2  0  0  0  0
  8  9  4  0  0  0  0
  5 10  4  0  0  0  0
  9 10  2  0  0  0  0
 10 11  1  0  0  0  0
 11 12  1  0  0  0  0
 12 13  1  0  0  0  0
 13 14  2  0  0  0  0
 14 15  4  0  0  0  0
 15 16  2  0  0  0  0
 16 17  4  0  0  0  0
 13 18  4  0  0  0  0
 17 18  4  0  0  0  0
 18 19  4  0  0  0  0
 19 20  2  0  0  0  0
 20 21  4  0  0  0  0
 17 22  4  0  0  0  0
 21 22  2  0  0  0  0
 12 23  1  0  0  0  0
 23 24  4  0  0  0  0
 24 25  1  0  0  0  0
 25 26  2  0  0  0  0
 26 27  1  0  0  0  0
 26 28  1  0  0  0  0
 28 29  1  0  0  0  0
 25 30  4  0  0  0  0
 29 30  2  0  0  0  0
 24 31  2  0  0  0  0
 23 32  1  0  0  0  0
 32 33  1  0  0  0  0
 33 34  1  0  0  0  0
 33 35  2  0  0  0  0
 11 36  1  0  0  0  0
 32 36  1  0  0  0  0
 36 37  4  0  0  0  0
 37 38  1  0  0  0  0
 38 39  2  0  0  0  0
 39 40  1  0  0  0  0
 39 41  1  0  0  0  0
 41 42  1  0  0  0  0
 38 43  4  0  0  0  0
 42 43  2  0  0  0  0
 37 44  2  0  0  0  0
  1 45  1  0  0  0  0
  2 46  1  0  0  0  0
  3 47  1  0  0  0  0
  4 48  1  0  0  0  0
  7 49  1  0  0  0  0
  8 50  1  0  0  0  0
  9 51  1  0  0  0  0
 11 52  1  0  0  0  0
 12 53  1  0  0  0  0
 14 54  1  0  0  0  0
 15 55  1  0  0  0  0
 16 56  1  0  0  0  0
 19 57  1  0  0  0  0
 20 58  1  0  0  0  0
 21 59  1  0  0  0  0
 22 60  1  0  0  0  0
 29 61  1  0  0  0  0
 30 62  1  0  0  0  0
 32 63  1  0  0  0  0
 34 64  1  0  0  0  0
 42 65  1  0  0  0  0
 43 66  1  0  0  0  0
M  END
