78

C     -0.646365   -1.107243    5.965594
C     -1.871716   -1.697878    5.685302
C     -2.157711   -2.065484    4.384526
C     -1.227911   -1.816926    3.366330
C      0.015647   -1.177077    3.585323
C      0.294569   -0.863884    4.950537
C      1.527493   -0.326869    5.323689
C      2.518258   -0.127264    4.382096
C      2.262121   -0.406924    3.044867
C      1.000003   -0.860382    2.582937
C      0.825263   -1.037971    1.040888
C     -0.544035   -0.627659    0.381243
C     -0.863055   -1.577218   -0.814073
C     -1.307244   -2.865645   -0.419063
C     -1.608022   -3.869483   -1.329548
C     -1.469289   -3.623585   -2.681353
C     -1.036697   -2.377786   -3.140803
C     -0.726976   -1.321531   -2.228906
C     -0.311071   -0.114135   -2.849964
C     -0.200538    0.045942   -4.237455
C     -0.501189   -1.005847   -5.080277
C     -0.917009   -2.210429   -4.530776
N     -0.369389    0.792966    0.065656
C     -1.308844    1.761363   -0.248335
C     -2.728897    1.453965   -0.239998
C     -3.807748    2.300207   -0.443939
C     -4.983506    1.512261   -0.361603
C     -6.364759    1.746411   -0.473917
C     -7.243257    0.661901   -0.334108
C     -6.763331   -0.628343   -0.090662
C     -5.392099   -0.879730    0.025019
C     -4.547649    0.218387   -0.114752
O     -3.192403    0.184598   -0.033301
O     -0.910163    2.888749   -0.558008
C      1.038747    1.155911    0.105728
C      1.430090    2.119618    1.265723
O      0.419918    2.429858    2.108836
O      2.557242    2.538083    1.494282
N      1.712603   -0.122859    0.286812
C      2.947893   -0.519814   -0.190637
C      3.707072    0.406489   -1.001735
C      3.436246    1.064016   -2.188733
C      4.589783    1.822650   -2.517159
C      5.512037    1.556608   -1.513440
C      6.792707    2.101094   -1.464538
C      7.141908    2.967048   -2.506058
C      6.242640    3.259305   -3.535812
C      4.959673    2.692353   -3.557789
O      4.987216    0.692259   -0.605238
O      3.388075   -1.634082    0.095487
H     -0.421858   -0.850493    6.999224
H     -2.583859   -1.889724    6.482934
H     -3.099457   -2.555530    4.151303
H     -1.509621   -2.177920    2.392723
H      1.744534   -0.095676    6.364353
H      3.494701    0.247043    4.680156
H      3.092039   -0.242376    2.361847
H      1.091996   -2.079885    0.827408
H     -1.375736   -0.679549    1.077843
H     -1.413286   -3.125461    0.627706
H     -1.938215   -4.844649   -0.982747
H     -1.700382   -4.424364   -3.380984
H     -0.067621    0.764948   -2.278717
H      0.115071    1.001201   -4.649862
H     -0.418230   -0.892886   -6.156383
H     -1.153078   -3.030046   -5.207851
H     -3.739429    3.362626   -0.635587
H     -6.748509    2.743857   -0.666425
H     -8.315330    0.828872   -0.419878
H     -7.467304   -1.451999    0.009043
H     -5.001069   -1.872865    0.207451
H      1.313328    1.659777   -0.821708
H      0.847619    2.968360    2.806840
H      2.525787    0.992748   -2.764961
H      7.476554    1.859335   -0.660194
H      8.131515    3.418716   -2.513898
H      6.542864    3.935231   -4.333972
H      4.270646    2.924716   -4.364558
