
  xtb     03162223413D
 xtb: 6.3.3 (4ae9cef)
 66 70  0     0  0            999 V2000
   -2.9944    1.6803   -0.1039 C   0  0  0  0  0  0  0  0  0  0  0  0
   -4.1533    2.3827    0.1680 C   0  0  0  0  0  0  0  0  0  0  0  0
   -4.3673    3.6210   -0.4141 C   0  0  0  0  0  0  0  0  0  0  0  0
   -3.4177    4.1521   -1.2693 C   0  0  0  0  0  0  0  0  0  0  0  0
   -2.2615    3.4455   -1.5502 C   0  0  0  0  0  0  0  0  0  0  0  0
   -2.0460    2.2025   -0.9753 C   0  0  0  0  0  0  0  0  0  0  0  0
   -0.7760    1.4436   -1.2457 C   0  0  0  0  0  0  0  0  0  0  0  0
    0.1139    1.3750    0.0104 C   0  0  0  0  0  0  0  0  0  0  0  0
    1.1697    2.4477    0.0257 C   0  0  0  0  0  0  0  0  0  0  0  0
    1.0089    3.5577    0.8426 C   0  0  0  0  0  0  0  0  0  0  0  0
    1.9590    4.5630    0.8492 C   0  0  0  0  0  0  0  0  0  0  0  0
    3.0794    4.4651    0.0424 C   0  0  0  0  0  0  0  0  0  0  0  0
    3.2406    3.3622   -0.7784 C   0  0  0  0  0  0  0  0  0  0  0  0
    2.2878    2.3596   -0.7928 C   0  0  0  0  0  0  0  0  0  0  0  0
    0.6619    0.0233   -0.0297 N   0  0  0  0  0  0  0  0  0  0  0  0
    1.5324   -0.3951    0.9293 C   0  0  0  0  0  0  0  0  0  0  0  0
    2.0081   -1.8358    0.7676 C   0  0  0  0  0  0  0  0  0  0  0  0
    3.1257   -2.1370    1.7255 C   0  0  0  0  0  0  0  0  0  0  0  0
    4.3529   -1.5057    1.5683 C   0  0  0  0  0  0  0  0  0  0  0  0
    5.3865   -1.7548    2.4519 C   0  0  0  0  0  0  0  0  0  0  0  0
    5.2053   -2.6404    3.5010 C   0  0  0  0  0  0  0  0  0  0  0  0
    3.9847   -3.2711    3.6645 C   0  0  0  0  0  0  0  0  0  0  0  0
    2.9488   -3.0173    2.7823 C   0  0  0  0  0  0  0  0  0  0  0  0
    1.8851    0.3379    1.8228 O   0  0  0  0  0  0  0  0  0  0  0  0
    0.0424   -0.7870   -1.0448 C   0  0  0  0  0  0  0  0  0  0  0  0
    1.0269   -1.0869   -2.1978 C   0  0  0  0  0  0  0  0  0  0  0  0
    0.9573   -2.3640   -2.5849 O   0  0  0  0  0  0  0  0  0  0  0  0
    1.7465   -0.2817   -2.7141 O   0  0  0  0  0  0  0  0  0  0  0  0
   -1.0285    0.0375   -1.5504 N   0  0  0  0  0  0  0  0  0  0  0  0
   -2.0120   -0.3355   -2.4164 C   0  0  0  0  0  0  0  0  0  0  0  0
   -2.2684   -1.8336   -2.5198 C   0  0  0  0  0  0  0  0  0  0  0  0
   -2.7605   -2.3489   -1.1933 C   0  0  0  0  0  0  0  0  0  0  0  0
   -2.1338   -3.4103   -0.5513 C   0  0  0  0  0  0  0  0  0  0  0  0
   -2.5847   -3.8493    0.6825 C   0  0  0  0  0  0  0  0  0  0  0  0
   -3.6642   -3.2299    1.2883 C   0  0  0  0  0  0  0  0  0  0  0  0
   -4.2995   -2.1772    0.6500 C   0  0  0  0  0  0  0  0  0  0  0  0
   -3.8524   -1.7404   -0.5838 C   0  0  0  0  0  0  0  0  0  0  0  0
   -2.6858    0.4819   -3.0014 O   0  0  0  0  0  0  0  0  0  0  0  0
   -2.8309    0.7128    0.3509 H   0  0  0  0  0  0  0  0  0  0  0  0
   -4.8913    1.9625    0.8357 H   0  0  0  0  0  0  0  0  0  0  0  0
   -5.2736    4.1689   -0.2022 H   0  0  0  0  0  0  0  0  0  0  0  0
   -3.5789    5.1184   -1.7233 H   0  0  0  0  0  0  0  0  0  0  0  0
   -1.5241    3.8577   -2.2228 H   0  0  0  0  0  0  0  0  0  0  0  0
   -0.2254    1.9104   -2.0734 H   0  0  0  0  0  0  0  0  0  0  0  0
   -0.5024    1.4730    0.9147 H   0  0  0  0  0  0  0  0  0  0  0  0
    0.1381    3.6320    1.4777 H   0  0  0  0  0  0  0  0  0  0  0  0
    1.8269    5.4218    1.4906 H   0  0  0  0  0  0  0  0  0  0  0  0
    3.8255    5.2459    0.0539 H   0  0  0  0  0  0  0  0  0  0  0  0
    4.1121    3.2811   -1.4115 H   0  0  0  0  0  0  0  0  0  0  0  0
    2.4154    1.5052   -1.4398 H   0  0  0  0  0  0  0  0  0  0  0  0
    2.3503   -1.9769   -0.2606 H   0  0  0  0  0  0  0  0  0  0  0  0
    1.1616   -2.5047    0.9452 H   0  0  0  0  0  0  0  0  0  0  0  0
    4.4916   -0.8087    0.7546 H   0  0  0  0  0  0  0  0  0  0  0  0
    6.3356   -1.2555    2.3234 H   0  0  0  0  0  0  0  0  0  0  0  0
    6.0127   -2.8353    4.1914 H   0  0  0  0  0  0  0  0  0  0  0  0
    3.8360   -3.9596    4.4836 H   0  0  0  0  0  0  0  0  0  0  0  0
    1.9947   -3.5074    2.9189 H   0  0  0  0  0  0  0  0  0  0  0  0
   -0.3367   -1.7366   -0.6423 H   0  0  0  0  0  0  0  0  0  0  0  0
    1.5559   -2.5373   -3.3315 H   0  0  0  0  0  0  0  0  0  0  0  0
   -1.3746   -2.3708   -2.8351 H   0  0  0  0  0  0  0  0  0  0  0  0
   -3.0414   -1.9642   -3.2805 H   0  0  0  0  0  0  0  0  0  0  0  0
   -1.2969   -3.9062   -1.0255 H   0  0  0  0  0  0  0  0  0  0  0  0
   -2.0912   -4.6771    1.1707 H   0  0  0  0  0  0  0  0  0  0  0  0
   -4.0128   -3.5700    2.2520 H   0  0  0  0  0  0  0  0  0  0  0  0
   -5.1468   -1.6953    1.1151 H   0  0  0  0  0  0  0  0  0  0  0  0
   -4.3471   -0.9209   -1.0848 H   0  0  0  0  0  0  0  0  0  0  0  0
  1  2  4  0  0  0  0
  2  3  4  0  0  0  0
  3  4  4  0  0  0  0
  4  5  4  0  0  0  0
  1  6  4  0  0  0  0
  5  6  4  0  0  0  0
  6  7  1  0  0  0  0
  7  8  1  0  0  0  0
  8  9  1  0  0  0  0
  9 10  4  0  0  0  0
 10 11  4  0  0  0  0
 11 12  4  0  0  0  0
 12 13  4  0  0  0  0
  9 14  4  0  0  0  0
 13 14  4  0  0  0  0
  8 15  1  0  0  0  0
 15 16  1  0  0  0  0
 16 17  1  0  0  0  0
 17 18  1  0  0  0  0
 18 19  4  0  0  0  0
 19 20  4  0  0  0  0
 20 21  4  0  0  0  0
 21 22  4  0  0  0  0
 18 23  4  0  0  0  0
 22 23  4  0  0  0  0
 16 24  2  0  0  0  0
 15 25  1  0  0  0  0
 25 26  1  0  0  0  0
 26 27  1  0  0  0  0
 26 28  2  0  0  0  0
  7 29  1  0  0  0  0
 25 29  1  0  0  0  0
 29 30  1  0  0  0  0
 30 31  1  0  0  0  0
 31 32  1  0  0  0  0
 32 33  4  0  0  0  0
 33 34  4  0  0  0  0
 34 35  4  0  0  0  0
 35 36  4  0  0  0  0
 32 37  4  0  0  0  0
 36 37  4  0  0  0  0
 30 38  2  0  0  0  0
  1 39  1  0  0  0  0
  2 40  1  0  0  0  0
  3 41  1  0  0  0  0
  4 42  1  0  0  0  0
  5 43  1  0  0  0  0
  7 44  1  0  0  0  0
  8 45  1  0  0  0  0
 10 46  1  0  0  0  0
 11 47  1  0  0  0  0
 12 48  1  0  0  0  0
 13 49  1  0  0  0  0
 14 50  1  0  0  0  0
 17 51  1  0  0  0  0
 17 52  1  0  0  0  0
 19 53  1  0  0  0  0
 20 54  1  0  0  0  0
 21 55  1  0  0  0  0
 22 56  1  0  0  0  0
 23 57  1  0  0  0  0
 25 58  1  0  0  0  0
 27 59  1  0  0  0  0
 31 60  1  0  0  0  0
 31 61  1  0  0  0  0
 33 62  1  0  0  0  0
 34 63  1  0  0  0  0
 35 64  1  0  0  0  0
 36 65  1  0  0  0  0
 37 66  1  0  0  0  0
M  END
