
  xtb     03162223083D
 xtb: 6.3.3 (4ae9cef)
 96102  0     0  0            999 V2000
    4.1495    5.0933    0.8860 C   0  0  0  0  0  0  0  0  0  0  0  0
    3.2985    5.7884    1.6958 C   0  0  0  0  0  0  0  0  0  0  0  0
    2.0018    5.3046    1.9177 C   0  0  0  0  0  0  0  0  0  0  0  0
    1.5870    4.1320    1.3509 C   0  0  0  0  0  0  0  0  0  0  0  0
    2.4455    3.3722    0.5256 C   0  0  0  0  0  0  0  0  0  0  0  0
    3.7485    3.8868    0.2745 C   0  0  0  0  0  0  0  0  0  0  0  0
    4.6199    3.1972   -0.5931 C   0  0  0  0  0  0  0  0  0  0  0  0
    4.2152    2.0539   -1.2184 C   0  0  0  0  0  0  0  0  0  0  0  0
    2.9401    1.5336   -0.9658 C   0  0  0  0  0  0  0  0  0  0  0  0
    2.0790    2.1445   -0.0884 C   0  0  0  0  0  0  0  0  0  0  0  0
    0.7413    1.5040    0.1790 C   0  0  0  0  0  0  0  0  0  0  0  0
   -0.1952    1.6029   -1.0377 C   0  0  0  0  0  0  0  0  0  0  0  0
   -1.0788    2.8204   -1.0120 C   0  0  0  0  0  0  0  0  0  0  0  0
   -0.8809    3.7690   -1.9840 C   0  0  0  0  0  0  0  0  0  0  0  0
   -1.6217    4.9562   -2.0136 C   0  0  0  0  0  0  0  0  0  0  0  0
   -2.5682    5.1940   -1.0601 C   0  0  0  0  0  0  0  0  0  0  0  0
   -2.8020    4.2541   -0.0362 C   0  0  0  0  0  0  0  0  0  0  0  0
   -2.0467    3.0496    0.0024 C   0  0  0  0  0  0  0  0  0  0  0  0
   -2.3027    2.1467    1.0564 C   0  0  0  0  0  0  0  0  0  0  0  0
   -3.2487    2.4099    2.0075 C   0  0  0  0  0  0  0  0  0  0  0  0
   -3.9962    3.5943    1.9599 C   0  0  0  0  0  0  0  0  0  0  0  0
   -3.7736    4.4949    0.9579 C   0  0  0  0  0  0  0  0  0  0  0  0
   -0.8840    0.3132   -1.0526 N   0  0  0  0  0  0  0  0  0  0  0  0
   -1.9518    0.0589   -1.8621 C   0  0  0  0  0  0  0  0  0  0  0  0
   -2.1373   -1.3947   -2.1980 C   0  0  0  0  0  0  0  0  0  0  0  0
   -2.9518   -2.3535   -1.5961 C   0  0  0  0  0  0  0  0  0  0  0  0
   -3.9051   -2.1145   -0.4329 C   0  0  0  0  0  0  0  0  0  0  0  0
   -3.7538   -0.7441    0.2228 C   0  0  0  0  0  0  0  0  0  0  0  0
   -3.6717   -3.1755    0.6558 C   0  0  0  0  0  0  0  0  0  0  0  0
   -5.3373   -2.2228   -0.9780 C   0  0  0  0  0  0  0  0  0  0  0  0
   -2.9299   -3.6379   -2.1445 C   0  0  0  0  0  0  0  0  0  0  0  0
   -2.1601   -3.9686   -3.2402 C   0  0  0  0  0  0  0  0  0  0  0  0
   -1.3866   -2.9989   -3.8534 C   0  0  0  0  0  0  0  0  0  0  0  0
   -1.3843   -1.7235   -3.3292 C   0  0  0  0  0  0  0  0  0  0  0  0
   -2.5930    0.9439   -2.3847 O   0  0  0  0  0  0  0  0  0  0  0  0
   -0.0876   -0.6930   -0.3955 C   0  0  0  0  0  0  0  0  0  0  0  0
    0.7022   -1.5941   -1.3636 C   0  0  0  0  0  0  0  0  0  0  0  0
    0.4572   -2.8769   -1.1181 O   0  0  0  0  0  0  0  0  0  0  0  0
    1.4802   -1.2050   -2.1904 O   0  0  0  0  0  0  0  0  0  0  0  0
    0.8304    0.0635    0.4274 N   0  0  0  0  0  0  0  0  0  0  0  0
    1.4723   -0.3903    1.5444 C   0  0  0  0  0  0  0  0  0  0  0  0
    1.3137   -1.8647    1.7783 C   0  0  0  0  0  0  0  0  0  0  0  0
    0.0864   -2.1731    2.3712 C   0  0  0  0  0  0  0  0  0  0  0  0
   -0.2852   -3.4741    2.6339 C   0  0  0  0  0  0  0  0  0  0  0  0
    0.5795   -4.4944    2.2794 C   0  0  0  0  0  0  0  0  0  0  0  0
    1.8069   -4.1906    1.7292 C   0  0  0  0  0  0  0  0  0  0  0  0
    2.2259   -2.8797    1.4856 C   0  0  0  0  0  0  0  0  0  0  0  0
    3.6477   -2.6955    0.9656 C   0  0  0  0  0  0  0  0  0  0  0  0
    4.6064   -3.3724    1.9608 C   0  0  0  0  0  0  0  0  0  0  0  0
    3.7927   -3.3515   -0.4173 C   0  0  0  0  0  0  0  0  0  0  0  0
    4.0847   -1.2381    0.8377 C   0  0  0  0  0  0  0  0  0  0  0  0
    2.0165    0.3736    2.3107 O   0  0  0  0  0  0  0  0  0  0  0  0
    5.1477    5.4602    0.6927 H   0  0  0  0  0  0  0  0  0  0  0  0
    3.6116    6.7117    2.1609 H   0  0  0  0  0  0  0  0  0  0  0  0
    1.3248    5.8683    2.5430 H   0  0  0  0  0  0  0  0  0  0  0  0
    0.5754    3.8049    1.5342 H   0  0  0  0  0  0  0  0  0  0  0  0
    5.6079    3.6007   -0.7633 H   0  0  0  0  0  0  0  0  0  0  0  0
    4.8706    1.5362   -1.9029 H   0  0  0  0  0  0  0  0  0  0  0  0
    2.6351    0.6318   -1.4768 H   0  0  0  0  0  0  0  0  0  0  0  0
    0.2949    1.9597    1.0661 H   0  0  0  0  0  0  0  0  0  0  0  0
    0.4224    1.6564   -1.9469 H   0  0  0  0  0  0  0  0  0  0  0  0
   -0.1398    3.5993   -2.7517 H   0  0  0  0  0  0  0  0  0  0  0  0
   -1.4372    5.6743   -2.7986 H   0  0  0  0  0  0  0  0  0  0  0  0
   -3.1519    6.1032   -1.0733 H   0  0  0  0  0  0  0  0  0  0  0  0
   -1.7463    1.2262    1.1142 H   0  0  0  0  0  0  0  0  0  0  0  0
   -3.4254    1.7020    2.8043 H   0  0  0  0  0  0  0  0  0  0  0  0
   -4.7424    3.7861    2.7168 H   0  0  0  0  0  0  0  0  0  0  0  0
   -4.3410    5.4134    0.9089 H   0  0  0  0  0  0  0  0  0  0  0  0
   -4.5071   -0.6291    1.0002 H   0  0  0  0  0  0  0  0  0  0  0  0
   -2.7788   -0.6502    0.6909 H   0  0  0  0  0  0  0  0  0  0  0  0
   -3.8927    0.0637   -0.4879 H   0  0  0  0  0  0  0  0  0  0  0  0
   -2.6150   -3.2312    0.9122 H   0  0  0  0  0  0  0  0  0  0  0  0
   -3.9978   -4.1621    0.3404 H   0  0  0  0  0  0  0  0  0  0  0  0
   -4.2324   -2.9129    1.5503 H   0  0  0  0  0  0  0  0  0  0  0  0
   -5.5103   -1.4452   -1.7186 H   0  0  0  0  0  0  0  0  0  0  0  0
   -6.0547   -2.0969   -0.1701 H   0  0  0  0  0  0  0  0  0  0  0  0
   -5.5128   -3.1873   -1.4471 H   0  0  0  0  0  0  0  0  0  0  0  0
   -3.5443   -4.4083   -1.7063 H   0  0  0  0  0  0  0  0  0  0  0  0
   -2.1777   -4.9775   -3.6253 H   0  0  0  0  0  0  0  0  0  0  0  0
   -0.7966   -3.2291   -4.7276 H   0  0  0  0  0  0  0  0  0  0  0  0
   -0.7964   -0.9501   -3.8034 H   0  0  0  0  0  0  0  0  0  0  0  0
   -0.7201   -1.3666    0.2026 H   0  0  0  0  0  0  0  0  0  0  0  0
    0.9777   -3.4566   -1.6991 H   0  0  0  0  0  0  0  0  0  0  0  0
   -0.5761   -1.3610    2.6417 H   0  0  0  0  0  0  0  0  0  0  0  0
   -1.2332   -3.6894    3.1032 H   0  0  0  0  0  0  0  0  0  0  0  0
    0.3051   -5.5251    2.4480 H   0  0  0  0  0  0  0  0  0  0  0  0
    2.4684   -5.0082    1.4875 H   0  0  0  0  0  0  0  0  0  0  0  0
    5.6360   -3.1683    1.6757 H   0  0  0  0  0  0  0  0  0  0  0  0
    4.4435   -2.9776    2.9610 H   0  0  0  0  0  0  0  0  0  0  0  0
    4.4729   -4.4500    1.9902 H   0  0  0  0  0  0  0  0  0  0  0  0
    3.2766   -2.7622   -1.1718 H   0  0  0  0  0  0  0  0  0  0  0  0
    4.8444   -3.3925   -0.6922 H   0  0  0  0  0  0  0  0  0  0  0  0
    3.3988   -4.3649   -0.4297 H   0  0  0  0  0  0  0  0  0  0  0  0
    3.4553   -0.6934    0.1412 H   0  0  0  0  0  0  0  0  0  0  0  0
    4.0611   -0.7302    1.7971 H   0  0  0  0  0  0  0  0  0  0  0  0
    5.1045   -1.2002    0.4584 H   0  0  0  0  0  0  0  0  0  0  0  0
  1  2  2  0  0  0  0
  2  3  4  0  0  0  0
  3  4  2  0  0  0  0
  4  5  4  0  0  0  0
  1  6  4  0  0  0  0
  5  6  4  0  0  0  0
  6  7  4  0  0  0  0
  7  8  2  0  0  0  0
  8  9  4  0  0  0  0
  5 10  4  0  0  0  0
  9 10  2  0  0  0  0
 10 11  1  0  0  0  0
 11 12  1  0  0  0  0
 12 13  1  0  0  0  0
 13 14  2  0  0  0  0
 14 15  4  0  0  0  0
 15 16  2  0  0  0  0
 16 17  4  0  0  0  0
 13 18  4  0  0  0  0
 17 18  4  0  0  0  0
 18 19  4  0  0  0  0
 19 20  2  0  0  0  0
 20 21  4  0  0  0  0
 17 22  4  0  0  0  0
 21 22  2  0  0  0  0
 12 23  1  0  0  0  0
 23 24  1  0  0  0  0
 24 25  1  0  0  0  0
 25 26  4  0  0  0  0
 26 27  1  0  0  0  0
 27 28  1  0  0  0  0
 27 29  1  0  0  0  0
 27 30  1  0  0  0  0
 26 31  4  0  0  0  0
 31 32  4  0  0  0  0
 32 33  4  0  0  0  0
 25 34  4  0  0  0  0
 33 34  4  0  0  0  0
 24 35  2  0  0  0  0
 23 36  1  0  0  0  0
 36 37  1  0  0  0  0
 37 38  1  0  0  0  0
 37 39  2  0  0  0  0
 11 40  1  0  0  0  0
 36 40  1  0  0  0  0
 40 41  1  0  0  0  0
 41 42  1  0  0  0  0
 42 43  4  0  0  0  0
 43 44  4  0  0  0  0
 44 45  4  0  0  0  0
 45 46  4  0  0  0  0
 42 47  4  0  0  0  0
 46 47  4  0  0  0  0
 47 48  1  0  0  0  0
 48 49  1  0  0  0  0
 48 50  1  0  0  0  0
 48 51  1  0  0  0  0
 41 52  2  0  0  0  0
  1 53  1  0  0  0  0
  2 54  1  0  0  0  0
  3 55  1  0  0  0  0
  4 56  1  0  0  0  0
  7 57  1  0  0  0  0
  8 58  1  0  0  0  0
  9 59  1  0  0  0  0
 11 60  1  0  0  0  0
 12 61  1  0  0  0  0
 14 62  1  0  0  0  0
 15 63  1  0  0  0  0
 16 64  1  0  0  0  0
 19 65  1  0  0  0  0
 20 66  1  0  0  0  0
 21 67  1  0  0  0  0
 22 68  1  0  0  0  0
 28 69  1  0  0  0  0
 28 70  1  0  0  0  0
 28 71  1  0  0  0  0
 29 72  1  0  0  0  0
 29 73  1  0  0  0  0
 29 74  1  0  0  0  0
 30 75  1  0  0  0  0
 30 76  1  0  0  0  0
 30 77  1  0  0  0  0
 31 78  1  0  0  0  0
 32 79  1  0  0  0  0
 33 80  1  0  0  0  0
 34 81  1  0  0  0  0
 36 82  1  0  0  0  0
 38 83  1  0  0  0  0
 43 84  1  0  0  0  0
 44 85  1  0  0  0  0
 45 86  1  0  0  0  0
 46 87  1  0  0  0  0
 49 88  1  0  0  0  0
 49 89  1  0  0  0  0
 49 90  1  0  0  0  0
 50 91  1  0  0  0  0
 50 92  1  0  0  0  0
 50 93  1  0  0  0  0
 51 94  1  0  0  0  0
 51 95  1  0  0  0  0
 51 96  1  0  0  0  0
M  END
