
  xtb     03172200503D
 xtb: 6.3.3 (4ae9cef)
 60 64  0     0  0            999 V2000
    2.6202   -3.1672    0.3054 C   0  0  0  0  0  0  0  0  0  0  0  0
    3.5404   -3.5894    1.2485 C   0  0  0  0  0  0  0  0  0  0  0  0
    3.6501   -2.9260    2.4581 C   0  0  0  0  0  0  0  0  0  0  0  0
    2.8374   -1.8365    2.7224 C   0  0  0  0  0  0  0  0  0  0  0  0
    1.9171   -1.4156    1.7806 C   0  0  0  0  0  0  0  0  0  0  0  0
    1.8008   -2.0792    0.5652 C   0  0  0  0  0  0  0  0  0  0  0  0
    0.7843   -1.6223   -0.4497 C   0  0  0  0  0  0  0  0  0  0  0  0
   -0.6737   -1.8266    0.0410 C   0  0  0  0  0  0  0  0  0  0  0  0
   -1.5723   -2.4721   -0.9871 C   0  0  0  0  0  0  0  0  0  0  0  0
   -2.8149   -1.9382   -1.2994 C   0  0  0  0  0  0  0  0  0  0  0  0
   -3.6226   -2.5485   -2.2442 C   0  0  0  0  0  0  0  0  0  0  0  0
   -3.2025   -3.7041   -2.8782 C   0  0  0  0  0  0  0  0  0  0  0  0
   -1.9759   -4.2576   -2.5504 C   0  0  0  0  0  0  0  0  0  0  0  0
   -1.1676   -3.6478   -1.6088 C   0  0  0  0  0  0  0  0  0  0  0  0
   -1.1034   -0.4825    0.4024 N   0  0  0  0  0  0  0  0  0  0  0  0
   -1.5672   -0.2282    1.6667 C   0  0  0  0  0  0  0  0  0  0  0  0
   -1.6828    1.2097    2.0498 C   0  0  0  0  0  0  0  0  0  0  0  0
   -2.3510    2.1525    1.2743 C   0  0  0  0  0  0  0  0  0  0  0  0
   -2.4353    3.4635    1.7118 C   0  0  0  0  0  0  0  0  0  0  0  0
   -1.8560    3.8480    2.9091 C   0  0  0  0  0  0  0  0  0  0  0  0
   -1.2051    2.8995    3.6788 C   0  0  0  0  0  0  0  0  0  0  0  0
   -0.3185    3.4706    5.5110 I   0  0  0  0  0  0  0  0  0  0  0  0
   -1.1226    1.5835    3.2679 C   0  0  0  0  0  0  0  0  0  0  0  0
   -1.8573   -1.1283    2.4229 O   0  0  0  0  0  0  0  0  0  0  0  0
   -0.4058    0.4489   -0.4417 C   0  0  0  0  0  0  0  0  0  0  0  0
   -1.1733    0.6388   -1.7710 C   0  0  0  0  0  0  0  0  0  0  0  0
   -0.6248   -0.0315   -2.7732 O   0  0  0  0  0  0  0  0  0  0  0  0
   -2.1499    1.3272   -1.8748 O   0  0  0  0  0  0  0  0  0  0  0  0
    0.8752   -0.1782   -0.6473 N   0  0  0  0  0  0  0  0  0  0  0  0
    1.9753    0.3972   -1.1959 C   0  0  0  0  0  0  0  0  0  0  0  0
    1.8864    1.8917   -1.2875 C   0  0  0  0  0  0  0  0  0  0  0  0
    1.7914    2.6471   -0.1242 C   0  0  0  0  0  0  0  0  0  0  0  0
    1.6931    4.0219   -0.2169 C   0  0  0  0  0  0  0  0  0  0  0  0
    1.4865    5.1569    1.5549 I   0  0  0  0  0  0  0  0  0  0  0  0
    1.7042    4.6589   -1.4453 C   0  0  0  0  0  0  0  0  0  0  0  0
    1.8273    3.9013   -2.5974 C   0  0  0  0  0  0  0  0  0  0  0  0
    1.9182    2.5217   -2.5236 C   0  0  0  0  0  0  0  0  0  0  0  0
    2.9412   -0.2384   -1.5517 O   0  0  0  0  0  0  0  0  0  0  0  0
    2.5453   -3.6787   -0.6430 H   0  0  0  0  0  0  0  0  0  0  0  0
    4.1765   -4.4356    1.0356 H   0  0  0  0  0  0  0  0  0  0  0  0
    4.3699   -3.2538    3.1931 H   0  0  0  0  0  0  0  0  0  0  0  0
    2.9212   -1.3135    3.6635 H   0  0  0  0  0  0  0  0  0  0  0  0
    1.2843   -0.5645    1.9920 H   0  0  0  0  0  0  0  0  0  0  0  0
    0.9599   -2.1255   -1.4064 H   0  0  0  0  0  0  0  0  0  0  0  0
   -0.6957   -2.4329    0.9557 H   0  0  0  0  0  0  0  0  0  0  0  0
   -3.1627   -1.0482   -0.7966 H   0  0  0  0  0  0  0  0  0  0  0  0
   -4.5850   -2.1189   -2.4789 H   0  0  0  0  0  0  0  0  0  0  0  0
   -3.8327   -4.1791   -3.6149 H   0  0  0  0  0  0  0  0  0  0  0  0
   -1.6492   -5.1701   -3.0264 H   0  0  0  0  0  0  0  0  0  0  0  0
   -0.2213   -4.0956   -1.3436 H   0  0  0  0  0  0  0  0  0  0  0  0
   -2.8079    1.8662    0.3398 H   0  0  0  0  0  0  0  0  0  0  0  0
   -2.9544    4.1954    1.1123 H   0  0  0  0  0  0  0  0  0  0  0  0
   -1.9130    4.8737    3.2385 H   0  0  0  0  0  0  0  0  0  0  0  0
   -0.6315    0.8376    3.8747 H   0  0  0  0  0  0  0  0  0  0  0  0
   -0.3320    1.4337    0.0334 H   0  0  0  0  0  0  0  0  0  0  0  0
   -1.1365    0.0751   -3.5918 H   0  0  0  0  0  0  0  0  0  0  0  0
    1.8098    2.1608    0.8407 H   0  0  0  0  0  0  0  0  0  0  0  0
    1.6246    5.7333   -1.5049 H   0  0  0  0  0  0  0  0  0  0  0  0
    1.8493    4.3943   -3.5573 H   0  0  0  0  0  0  0  0  0  0  0  0
    2.0147    1.9256   -3.4180 H   0  0  0  0  0  0  0  0  0  0  0  0
  1  2  4  0  0  0  0
  2  3  4  0  0  0  0
  3  4  4  0  0  0  0
  4  5  4  0  0  0  0
  1  6  4  0  0  0  0
  5  6  4  0  0  0  0
  6  7  1  0  0  0  0
  7  8  1  0  0  0  0
  8  9  1  0  0  0  0
  9 10  4  0  0  0  0
 10 11  4  0  0  0  0
 11 12  4  0  0  0  0
 12 13  4  0  0  0  0
  9 14  4  0  0  0  0
 13 14  4  0  0  0  0
  8 15  1  0  0  0  0
 15 16  1  0  0  0  0
 16 17  1  0  0  0  0
 17 18  4  0  0  0  0
 18 19  4  0  0  0  0
 19 20  4  0  0  0  0
 20 21  4  0  0  0  0
 21 22  1  0  0  0  0
 17 23  4  0  0  0  0
 21 23  4  0  0  0  0
 16 24  2  0  0  0  0
 15 25  1  0  0  0  0
 25 26  1  0  0  0  0
 26 27  1  0  0  0  0
 26 28  2  0  0  0  0
  7 29  1  0  0  0  0
 25 29  1  0  0  0  0
 29 30  4  0  0  0  0
 30 31  1  0  0  0  0
 31 32  4  0  0  0  0
 32 33  4  0  0  0  0
 33 34  1  0  0  0  0
 33 35  4  0  0  0  0
 35 36  4  0  0  0  0
 31 37  4  0  0  0  0
 36 37  4  0  0  0  0
 30 38  2  0  0  0  0
  1 39  1  0  0  0  0
  2 40  1  0  0  0  0
  3 41  1  0  0  0  0
  4 42  1  0  0  0  0
  5 43  1  0  0  0  0
  7 44  1  0  0  0  0
  8 45  1  0  0  0  0
 10 46  1  0  0  0  0
 11 47  1  0  0  0  0
 12 48  1  0  0  0  0
 13 49  1  0  0  0  0
 14 50  1  0  0  0  0
 18 51  1  0  0  0  0
 19 52  1  0  0  0  0
 20 53  1  0  0  0  0
 23 54  1  0  0  0  0
 25 55  1  0  0  0  0
 27 56  1  0  0  0  0
 32 57  1  0  0  0  0
 35 58  1  0  0  0  0
 36 59  1  0  0  0  0
 37 60  1  0  0  0  0
M  END
