74

C     -2.714447   -2.234192    0.169807
O     -1.902044   -2.479991    1.247872
C     -2.427853   -3.275408    2.300620
C     -4.006215   -2.759231    0.026797
C     -4.782975   -2.444265   -1.088251
C     -4.278777   -1.596181   -2.066122
C     -2.992245   -1.074963   -1.939870
C     -2.181773   -1.392449   -0.832060
C     -0.774113   -0.819182   -0.699206
C      0.070333   -0.660201   -2.000060
C      0.683850   -1.993336   -2.419574
C      0.209314   -2.586216   -3.606111
C      0.715729   -3.805021   -4.055261
C      1.705136   -4.452958   -3.324255
C      2.180799   -3.888315   -2.138186
C      1.674513   -2.667028   -1.673510
O      2.112261   -2.050670   -0.528236
C      2.758999   -2.874415    0.435732
N      1.032297    0.382436   -1.648813
C      2.128120    0.663074   -2.451585
C      3.258312    1.367631   -1.856255
C      3.863880    1.198393   -0.627237
C      4.924034    2.133179   -0.382180
C      5.735919    2.324250    0.760560
C      6.720807    3.317188    0.769110
C      6.919322    4.118676   -0.346704
C      6.138930    3.945795   -1.490970
C      5.141743    2.950782   -1.492131
S      4.067971    2.558887   -2.777048
O      2.139168    0.300509   -3.628605
C      0.671116    1.006316   -0.382511
C      0.744525    2.559768   -0.229296
O      0.952880    3.231669   -1.378982
O      0.563592    3.172999    0.815673
N     -0.657684    0.476061   -0.008301
C     -1.715435    1.361644   -0.271166
C     -2.548071    1.626870    0.893574
C     -2.538318    1.016546    2.132772
C     -3.469244    1.594408    3.059230
C     -4.177403    2.644834    2.472066
C     -5.134073    3.384643    3.197145
C     -5.369591    3.057352    4.533614
C     -4.678881    2.015665    5.138105
C     -3.735525    1.278502    4.412990
S     -3.721286    2.865527    0.828118
O     -1.854093    1.885056   -1.375421
H     -3.318104   -2.812190    2.738766
H     -1.667425   -3.335057    3.085193
H     -2.632615   -4.295854    1.959672
H     -4.442661   -3.415976    0.772610
H     -5.787425   -2.848674   -1.184794
H     -4.888534   -1.330238   -2.925032
H     -2.647581   -0.389673   -2.713820
H     -0.223891   -1.497254   -0.035345
H     -0.510889   -0.236236   -2.825509
H     -0.552373   -2.086201   -4.200957
H      0.350467   -4.237844   -4.982785
H      2.116875   -5.393859   -3.682016
H      2.966863   -4.418585   -1.611509
H      3.739562   -3.205297    0.087955
H      2.918501   -2.267732    1.332439
H      2.129895   -3.723377    0.714861
H      3.565089    0.441042    0.086580
H      5.590436    1.705194    1.641141
H      7.334206    3.461278    1.655173
H      7.689863    4.886876   -0.334988
H      6.295568    4.572212   -2.363942
H      1.360626    0.601624    0.365234
H      0.877646    4.178360   -1.137788
H     -1.881921    0.190268    2.381722
H     -5.669256    4.204476    2.726072
H     -6.100893    3.626400    5.103483
H     -4.874096    1.769045    6.179558
H     -3.191435    0.472635    4.898469
