78

C     -1.977264   -1.028433   -1.677925
C     -2.995316   -1.958475   -1.906785
C     -3.556934   -2.685600   -0.848593
C     -4.583609   -3.618662   -1.064778
C     -5.129948   -4.335238    0.000438
C     -4.656304   -4.129584    1.292733
C     -3.635863   -3.205725    1.523336
C     -3.077356   -2.474726    0.461992
C     -2.054883   -1.534781    0.676346
C     -1.502095   -0.791508   -0.383511
C     -0.415977    0.221768   -0.079553
C      1.016788   -0.344509   -0.290785
C      1.556746   -0.920497    1.007357
C      1.546748   -2.311850    1.200131
C      1.983310   -2.887535    2.405169
C      1.969858   -4.278373    2.598685
C      2.406097   -4.836198    3.801003
C      2.861490   -4.011514    4.824923
C      2.880595   -2.627450    4.648854
C      2.444359   -2.050908    3.444892
C      2.456592   -0.661739    3.251224
C      2.015316   -0.102740    2.049370
N      1.768689    0.810905   -0.781908
C      3.096364    0.697614   -1.155671
C      3.814515    1.933489   -1.419115
C      4.801733    2.065334   -2.383252
C      5.344863    1.120015   -3.392658
F      5.989823    1.759201   -4.404171
F      6.229228    0.242055   -2.861792
F      4.354916    0.396029   -3.981084
O      5.305805    3.337086   -2.365752
C      4.657255    4.017921   -1.383859
C      5.064968    5.422729   -1.180814
C      3.738095    3.198797   -0.767511
O      3.667356   -0.382407   -1.246555
C      0.866053    1.741889   -1.447120
C      0.833024    1.457065   -2.975236
O      1.444815    2.415958   -3.703068
O      0.398142    0.456571   -3.524923
N     -0.443425    1.446895   -0.888285
C     -1.448084    2.375917   -1.027634
C     -2.680582    2.170296   -0.294667
C     -3.926450    2.096280   -0.896311
C     -4.354646    2.153370   -2.315778
F     -3.388821    1.694123   -3.157588
F     -4.652477    3.418475   -2.711593
F     -5.458605    1.397121   -2.558274
O     -4.893452    1.912820    0.053376
C     -4.271969    1.876970    1.263366
C     -5.140525    1.671029    2.440090
C     -2.913959    2.047044    1.105252
O     -1.321091    3.345112   -1.770100
H     -1.578313   -0.489631   -2.532956
H     -3.346321   -2.109018   -2.925882
H     -4.966274   -3.792269   -2.068120
H     -5.923883   -5.055045   -0.180881
H     -5.081408   -4.688415    2.122686
H     -3.279862   -3.059631    2.541021
H     -1.690370   -1.377028    1.691467
H     -0.539664    0.568253    0.954291
H      1.044400   -1.102321   -1.085687
H      1.191842   -2.960749    0.399636
H      1.621537   -4.940495    1.808651
H      2.392763   -5.914542    3.935067
H      3.203322   -4.444954    5.760938
H      3.239943   -2.000363    5.461023
H      2.815617   -0.002305    4.039159
H      2.037251    0.978593    1.937988
H      5.196649    5.931350   -2.141011
H      4.308707    5.968596   -0.608267
H      6.010622    5.468459   -0.631485
H      3.103914    3.476083    0.063318
H      1.134089    2.784610   -1.259715
H      1.356071    2.110018   -4.631677
H     -6.094326    2.194856    2.318800
H     -4.661107    2.048875    3.348511
H     -5.345210    0.605105    2.578889
H     -2.183899    2.080548    1.902348
