
  xtb     03162222003D
 xtb: 6.3.3 (4ae9cef)
 78 86  0     0  0            999 V2000
    3.6953   -1.0574    3.0183 C   0  0  0  0  0  0  0  0  0  0  0  0
    3.5813   -2.3630    2.6359 C   0  0  0  0  0  0  0  0  0  0  0  0
    2.6693   -2.7175    1.6321 C   0  0  0  0  0  0  0  0  0  0  0  0
    1.9163   -1.7640    1.0058 C   0  0  0  0  0  0  0  0  0  0  0  0
    2.0314   -0.3991    1.3508 C   0  0  0  0  0  0  0  0  0  0  0  0
    2.9205   -0.0505    2.4054 C   0  0  0  0  0  0  0  0  0  0  0  0
    3.0131    1.2905    2.8292 C   0  0  0  0  0  0  0  0  0  0  0  0
    2.2501    2.2588    2.2433 C   0  0  0  0  0  0  0  0  0  0  0  0
    1.4111    1.9308    1.1727 C   0  0  0  0  0  0  0  0  0  0  0  0
    1.3173    0.6438    0.7031 C   0  0  0  0  0  0  0  0  0  0  0  0
    0.4665    0.3843   -0.5141 C   0  0  0  0  0  0  0  0  0  0  0  0
   -1.0458    0.4791   -0.2006 C   0  0  0  0  0  0  0  0  0  0  0  0
   -1.6026   -0.8535    0.2235 C   0  0  0  0  0  0  0  0  0  0  0  0
   -1.9638   -0.9937    1.5409 C   0  0  0  0  0  0  0  0  0  0  0  0
   -2.4637   -2.2011    2.0417 C   0  0  0  0  0  0  0  0  0  0  0  0
   -2.5999   -3.2753    1.2118 C   0  0  0  0  0  0  0  0  0  0  0  0
   -2.2228   -3.1869   -0.1438 C   0  0  0  0  0  0  0  0  0  0  0  0
   -1.6994   -1.9666   -0.6573 C   0  0  0  0  0  0  0  0  0  0  0  0
   -1.3234   -1.9303   -2.0197 C   0  0  0  0  0  0  0  0  0  0  0  0
   -1.4689   -3.0289   -2.8217 C   0  0  0  0  0  0  0  0  0  0  0  0
   -1.9973   -4.2241   -2.3149 C   0  0  0  0  0  0  0  0  0  0  0  0
   -2.3635   -4.2982   -1.0015 C   0  0  0  0  0  0  0  0  0  0  0  0
   -1.6020    1.0882   -1.3985 N   0  0  0  0  0  0  0  0  0  0  0  0
   -2.7976    0.9011   -2.0098 C   0  0  0  0  0  0  0  0  0  0  0  0
   -3.8208    0.1604   -1.2372 C   0  0  0  0  0  0  0  0  0  0  0  0
   -4.4480   -0.9395   -1.7196 C   0  0  0  0  0  0  0  0  0  0  0  0
   -5.5503   -1.6548   -0.6048 S   0  0  0  0  0  0  0  0  0  0  0  0
   -5.2188   -0.4062    0.5632 C   0  0  0  0  0  0  0  0  0  0  0  0
   -4.2757    0.5172    0.0749 C   0  0  0  0  0  0  0  0  0  0  0  0
   -3.9466    1.6234    0.8596 C   0  0  0  0  0  0  0  0  0  0  0  0
   -4.5113    1.7584    2.1080 C   0  0  0  0  0  0  0  0  0  0  0  0
   -5.4138    0.8121    2.5928 C   0  0  0  0  0  0  0  0  0  0  0  0
   -5.7835   -0.2703    1.8221 C   0  0  0  0  0  0  0  0  0  0  0  0
   -2.9949    1.3458   -3.1261 O   0  0  0  0  0  0  0  0  0  0  0  0
   -0.5956    1.8718   -2.0833 C   0  0  0  0  0  0  0  0  0  0  0  0
   -0.6359    1.6258   -3.6074 C   0  0  0  0  0  0  0  0  0  0  0  0
   -0.8520    2.7363   -4.2818 O   0  0  0  0  0  0  0  0  0  0  0  0
   -0.3955    0.5508   -4.0880 O   0  0  0  0  0  0  0  0  0  0  0  0
    0.6579    1.3995   -1.5371 N   0  0  0  0  0  0  0  0  0  0  0  0
    1.8340    1.7257   -2.1297 C   0  0  0  0  0  0  0  0  0  0  0  0
    3.0199    1.0371   -1.5436 C   0  0  0  0  0  0  0  0  0  0  0  0
    3.3227   -0.2666   -1.7384 C   0  0  0  0  0  0  0  0  0  0  0  0
    4.7421   -0.7842   -0.8957 S   0  0  0  0  0  0  0  0  0  0  0  0
    4.9633    0.8125   -0.2409 C   0  0  0  0  0  0  0  0  0  0  0  0
    3.9733    1.6986   -0.7022 C   0  0  0  0  0  0  0  0  0  0  0  0
    4.0157    3.0340   -0.3021 C   0  0  0  0  0  0  0  0  0  0  0  0
    5.0153    3.4494    0.5480 C   0  0  0  0  0  0  0  0  0  0  0  0
    5.9758    2.5533    1.0167 C   0  0  0  0  0  0  0  0  0  0  0  0
    5.9626    1.2314    0.6240 C   0  0  0  0  0  0  0  0  0  0  0  0
    1.8950    2.5372   -3.0286 O   0  0  0  0  0  0  0  0  0  0  0  0
    4.3796   -0.7706    3.8037 H   0  0  0  0  0  0  0  0  0  0  0  0
    4.1797   -3.1281    3.1071 H   0  0  0  0  0  0  0  0  0  0  0  0
    2.5642   -3.7549    1.3517 H   0  0  0  0  0  0  0  0  0  0  0  0
    1.2123   -2.0750    0.2495 H   0  0  0  0  0  0  0  0  0  0  0  0
    3.6950    1.5351    3.6302 H   0  0  0  0  0  0  0  0  0  0  0  0
    2.3047    3.2829    2.5798 H   0  0  0  0  0  0  0  0  0  0  0  0
    0.8531    2.7168    0.6839 H   0  0  0  0  0  0  0  0  0  0  0  0
    0.6923   -0.5977   -0.9383 H   0  0  0  0  0  0  0  0  0  0  0  0
   -1.1764    1.1827    0.6360 H   0  0  0  0  0  0  0  0  0  0  0  0
   -1.8747   -0.1507    2.2111 H   0  0  0  0  0  0  0  0  0  0  0  0
   -2.7458   -2.2646    3.0814 H   0  0  0  0  0  0  0  0  0  0  0  0
   -2.9982   -4.2103    1.5776 H   0  0  0  0  0  0  0  0  0  0  0  0
   -0.9281   -1.0315   -2.4631 H   0  0  0  0  0  0  0  0  0  0  0  0
   -1.1773   -2.9684   -3.8593 H   0  0  0  0  0  0  0  0  0  0  0  0
   -2.1114   -5.0778   -2.9663 H   0  0  0  0  0  0  0  0  0  0  0  0
   -2.7715   -5.2117   -0.5933 H   0  0  0  0  0  0  0  0  0  0  0  0
   -4.2909   -1.4053   -2.6728 H   0  0  0  0  0  0  0  0  0  0  0  0
   -3.2681    2.3700    0.4751 H   0  0  0  0  0  0  0  0  0  0  0  0
   -4.2584    2.6107    2.7211 H   0  0  0  0  0  0  0  0  0  0  0  0
   -5.8398    0.9382    3.5764 H   0  0  0  0  0  0  0  0  0  0  0  0
   -6.4996   -0.9937    2.1788 H   0  0  0  0  0  0  0  0  0  0  0  0
   -0.7314    2.9516   -1.9079 H   0  0  0  0  0  0  0  0  0  0  0  0
   -0.8522    2.5633   -5.2363 H   0  0  0  0  0  0  0  0  0  0  0  0
    2.7987   -0.9783   -2.3469 H   0  0  0  0  0  0  0  0  0  0  0  0
    3.2748    3.7235   -0.6763 H   0  0  0  0  0  0  0  0  0  0  0  0
    5.0598    4.4822    0.8595 H   0  0  0  0  0  0  0  0  0  0  0  0
    6.7452    2.9017    1.6891 H   0  0  0  0  0  0  0  0  0  0  0  0
    6.7081    0.5342    0.9733 H   0  0  0  0  0  0  0  0  0  0  0  0
  1  2  2  0  0  0  0
  2  3  4  0  0  0  0
  3  4  2  0  0  0  0
  4  5  4  0  0  0  0
  1  6  4  0  0  0  0
  5  6  4  0  0  0  0
  6  7  4  0  0  0  0
  7  8  2  0  0  0  0
  8  9  4  0  0  0  0
  5 10  4  0  0  0  0
  9 10  2  0  0  0  0
 10 11  1  0  0  0  0
 11 12  1  0  0  0  0
 12 13  1  0  0  0  0
 13 14  2  0  0  0  0
 14 15  4  0  0  0  0
 15 16  2  0  0  0  0
 16 17  4  0  0  0  0
 13 18  4  0  0  0  0
 17 18  4  0  0  0  0
 18 19  4  0  0  0  0
 19 20  2  0  0  0  0
 20 21  4  0  0  0  0
 17 22  4  0  0  0  0
 21 22  2  0  0  0  0
 12 23  1  0  0  0  0
 23 24  4  0  0  0  0
 24 25  1  0  0  0  0
 25 26  2  0  0  0  0
 26 27  1  0  0  0  0
 27 28  1  0  0  0  0
 25 29  1  0  0  0  0
 28 29  4  0  0  0  0
 29 30  4  0  0  0  0
 30 31  4  0  0  0  0
 31 32  4  0  0  0  0
 28 33  4  0  0  0  0
 32 33  4  0  0  0  0
 24 34  2  0  0  0  0
 23 35  1  0  0  0  0
 35 36  1  0  0  0  0
 36 37  1  0  0  0  0
 36 38  2  0  0  0  0
 11 39  1  0  0  0  0
 35 39  1  0  0  0  0
 39 40  4  0  0  0  0
 40 41  1  0  0  0  0
 41 42  2  0  0  0  0
 42 43  1  0  0  0  0
 43 44  1  0  0  0  0
 41 45  1  0  0  0  0
 44 45  4  0  0  0  0
 45 46  4  0  0  0  0
 46 47  4  0  0  0  0
 47 48  4  0  0  0  0
 44 49  4  0  0  0  0
 48 49  4  0  0  0  0
 40 50  2  0  0  0  0
  1 51  1  0  0  0  0
  2 52  1  0  0  0  0
  3 53  1  0  0  0  0
  4 54  1  0  0  0  0
  7 55  1  0  0  0  0
  8 56  1  0  0  0  0
  9 57  1  0  0  0  0
 11 58  1  0  0  0  0
 12 59  1  0  0  0  0
 14 60  1  0  0  0  0
 15 61  1  0  0  0  0
 16 62  1  0  0  0  0
 19 63  1  0  0  0  0
 20 64  1  0  0  0  0
 21 65  1  0  0  0  0
 22 66  1  0  0  0  0
 26 67  1  0  0  0  0
 30 68  1  0  0  0  0
 31 69  1  0  0  0  0
 32 70  1  0  0  0  0
 33 71  1  0  0  0  0
 35 72  1  0  0  0  0
 37 73  1  0  0  0  0
 42 74  1  0  0  0  0
 46 75  1  0  0  0  0
 47 76  1  0  0  0  0
 48 77  1  0  0  0  0
 49 78  1  0  0  0  0
M  END
