
  xtb     03162223403D
 xtb: 6.3.3 (4ae9cef)
 96102  0     0  0            999 V2000
   -3.3671   -0.8073   -3.1211 C   0  0  0  0  0  0  0  0  0  0  0  0
   -2.3643   -0.1875   -3.8096 C   0  0  0  0  0  0  0  0  0  0  0  0
   -1.1790    0.1540   -3.1456 C   0  0  0  0  0  0  0  0  0  0  0  0
   -1.0116   -0.1398   -1.8210 C   0  0  0  0  0  0  0  0  0  0  0  0
   -2.0228   -0.7819   -1.0730 C   0  0  0  0  0  0  0  0  0  0  0  0
   -3.2311   -1.1102   -1.7500 C   0  0  0  0  0  0  0  0  0  0  0  0
   -4.2842   -1.7311   -1.0487 C   0  0  0  0  0  0  0  0  0  0  0  0
   -4.1552   -2.0231    0.2773 C   0  0  0  0  0  0  0  0  0  0  0  0
   -2.9649   -1.7149    0.9448 C   0  0  0  0  0  0  0  0  0  0  0  0
   -1.9108   -1.1076    0.3075 C   0  0  0  0  0  0  0  0  0  0  0  0
   -0.6581   -0.8860    1.1244 C   0  0  0  0  0  0  0  0  0  0  0  0
    0.4967   -1.8283    0.6719 C   0  0  0  0  0  0  0  0  0  0  0  0
    0.9639   -2.7816    1.7542 C   0  0  0  0  0  0  0  0  0  0  0  0
    1.0497   -2.3478    3.0565 C   0  0  0  0  0  0  0  0  0  0  0  0
    1.4551   -3.1955    4.0947 C   0  0  0  0  0  0  0  0  0  0  0  0
    1.7622   -4.4975    3.8294 C   0  0  0  0  0  0  0  0  0  0  0  0
    1.7026   -4.9903    2.5103 C   0  0  0  0  0  0  0  0  0  0  0  0
    1.3205   -4.1264    1.4441 C   0  0  0  0  0  0  0  0  0  0  0  0
    1.3242   -4.6609    0.1358 C   0  0  0  0  0  0  0  0  0  0  0  0
    1.6511   -5.9686   -0.0950 C   0  0  0  0  0  0  0  0  0  0  0  0
    1.9964   -6.8218    0.9619 C   0  0  0  0  0  0  0  0  0  0  0  0
    2.0284   -6.3356    2.2369 C   0  0  0  0  0  0  0  0  0  0  0  0
    1.5731   -0.9248    0.2339 N   0  0  0  0  0  0  0  0  0  0  0  0
    2.1026   -1.0944   -1.0322 C   0  0  0  0  0  0  0  0  0  0  0  0
    2.9264    0.0203   -1.5683 C   0  0  0  0  0  0  0  0  0  0  0  0
    2.7233    0.3581   -2.9039 C   0  0  0  0  0  0  0  0  0  0  0  0
    3.4382    1.4010   -3.4551 C   0  0  0  0  0  0  0  0  0  0  0  0
    4.3630    2.0997   -2.6954 C   0  0  0  0  0  0  0  0  0  0  0  0
    4.6089    1.7572   -1.3710 C   0  0  0  0  0  0  0  0  0  0  0  0
    5.6177    2.4822   -0.4950 C   0  0  0  0  0  0  0  0  0  0  0  0
    6.6827    1.4830   -0.0211 C   0  0  0  0  0  0  0  0  0  0  0  0
    6.3245    3.6196   -1.2371 C   0  0  0  0  0  0  0  0  0  0  0  0
    4.8856    3.0795    0.7162 C   0  0  0  0  0  0  0  0  0  0  0  0
    3.8787    0.7060   -0.8249 C   0  0  0  0  0  0  0  0  0  0  0  0
    1.8998   -2.1115   -1.6612 O   0  0  0  0  0  0  0  0  0  0  0  0
    1.3480    0.3607    0.8523 C   0  0  0  0  0  0  0  0  0  0  0  0
    2.0961    0.4866    2.2023 C   0  0  0  0  0  0  0  0  0  0  0  0
    3.1489   -0.3300    2.3198 O   0  0  0  0  0  0  0  0  0  0  0  0
    1.7860    1.2690    3.0478 O   0  0  0  0  0  0  0  0  0  0  0  0
   -0.0817    0.4474    1.0422 N   0  0  0  0  0  0  0  0  0  0  0  0
   -0.7369    1.6168    0.7769 C   0  0  0  0  0  0  0  0  0  0  0  0
   -2.1860    1.6101    1.1084 C   0  0  0  0  0  0  0  0  0  0  0  0
   -3.1037    2.0712    0.1769 C   0  0  0  0  0  0  0  0  0  0  0  0
   -4.4647    2.1173    0.4613 C   0  0  0  0  0  0  0  0  0  0  0  0
   -5.4281    2.6508   -0.5869 C   0  0  0  0  0  0  0  0  0  0  0  0
   -5.3365    1.7794   -1.8459 C   0  0  0  0  0  0  0  0  0  0  0  0
   -6.8827    2.6464   -0.1088 C   0  0  0  0  0  0  0  0  0  0  0  0
   -5.0372    4.0965   -0.9237 C   0  0  0  0  0  0  0  0  0  0  0  0
   -4.8757    1.6894    1.7179 C   0  0  0  0  0  0  0  0  0  0  0  0
   -3.9605    1.2592    2.6651 C   0  0  0  0  0  0  0  0  0  0  0  0
   -2.6128    1.2202    2.3724 C   0  0  0  0  0  0  0  0  0  0  0  0
   -0.1487    2.5836    0.3371 O   0  0  0  0  0  0  0  0  0  0  0  0
   -4.2908   -1.0718   -3.6154 H   0  0  0  0  0  0  0  0  0  0  0  0
   -2.4779    0.0460   -4.8577 H   0  0  0  0  0  0  0  0  0  0  0  0
   -0.3919    0.6586   -3.6862 H   0  0  0  0  0  0  0  0  0  0  0  0
   -0.0863    0.1461   -1.3544 H   0  0  0  0  0  0  0  0  0  0  0  0
   -5.1917   -1.9725   -1.5834 H   0  0  0  0  0  0  0  0  0  0  0  0
   -4.9597   -2.4944    0.8212 H   0  0  0  0  0  0  0  0  0  0  0  0
   -2.8808   -1.9645    1.9929 H   0  0  0  0  0  0  0  0  0  0  0  0
   -0.9162   -1.1093    2.1659 H   0  0  0  0  0  0  0  0  0  0  0  0
    0.1752   -2.3965   -0.2048 H   0  0  0  0  0  0  0  0  0  0  0  0
    0.8010   -1.3295    3.3170 H   0  0  0  0  0  0  0  0  0  0  0  0
    1.5105   -2.8050    5.0992 H   0  0  0  0  0  0  0  0  0  0  0  0
    2.0588   -5.1689    4.6219 H   0  0  0  0  0  0  0  0  0  0  0  0
    1.1053   -4.0335   -0.7118 H   0  0  0  0  0  0  0  0  0  0  0  0
    1.6491   -6.3492   -1.1055 H   0  0  0  0  0  0  0  0  0  0  0  0
    2.2458   -7.8528    0.7594 H   0  0  0  0  0  0  0  0  0  0  0  0
    2.3093   -6.9727    3.0635 H   0  0  0  0  0  0  0  0  0  0  0  0
    2.0046   -0.2009   -3.4833 H   0  0  0  0  0  0  0  0  0  0  0  0
    3.2774    1.6774   -4.4866 H   0  0  0  0  0  0  0  0  0  0  0  0
    4.8962    2.9131   -3.1589 H   0  0  0  0  0  0  0  0  0  0  0  0
    6.2495    0.6969    0.5912 H   0  0  0  0  0  0  0  0  0  0  0  0
    7.4342    1.9966    0.5739 H   0  0  0  0  0  0  0  0  0  0  0  0
    7.1745    1.0212   -0.8751 H   0  0  0  0  0  0  0  0  0  0  0  0
    7.0354    4.0999   -0.5683 H   0  0  0  0  0  0  0  0  0  0  0  0
    5.6130    4.3734   -1.5658 H   0  0  0  0  0  0  0  0  0  0  0  0
    6.8749    3.2449   -2.0972 H   0  0  0  0  0  0  0  0  0  0  0  0
    4.0757    3.7280    0.3889 H   0  0  0  0  0  0  0  0  0  0  0  0
    5.5771    3.6683    1.3143 H   0  0  0  0  0  0  0  0  0  0  0  0
    4.4652    2.3083    1.3560 H   0  0  0  0  0  0  0  0  0  0  0  0
    4.0775    0.4069    0.1915 H   0  0  0  0  0  0  0  0  0  0  0  0
    1.6739    1.2089    0.2294 H   0  0  0  0  0  0  0  0  0  0  0  0
    3.1443   -1.0041    1.6153 H   0  0  0  0  0  0  0  0  0  0  0  0
   -2.7279    2.3905   -0.7832 H   0  0  0  0  0  0  0  0  0  0  0  0
   -5.6086    0.7532   -1.6095 H   0  0  0  0  0  0  0  0  0  0  0  0
   -4.3305    1.7764   -2.2555 H   0  0  0  0  0  0  0  0  0  0  0  0
   -6.0160    2.1529   -2.6092 H   0  0  0  0  0  0  0  0  0  0  0  0
   -7.5233    3.0350   -0.8977 H   0  0  0  0  0  0  0  0  0  0  0  0
   -7.0094    3.2784    0.7670 H   0  0  0  0  0  0  0  0  0  0  0  0
   -7.2147    1.6376    0.1262 H   0  0  0  0  0  0  0  0  0  0  0  0
   -5.0753    4.7145   -0.0292 H   0  0  0  0  0  0  0  0  0  0  0  0
   -4.0314    4.1492   -1.3299 H   0  0  0  0  0  0  0  0  0  0  0  0
   -5.7254    4.5089   -1.6585 H   0  0  0  0  0  0  0  0  0  0  0  0
   -5.9193    1.6995    1.9862 H   0  0  0  0  0  0  0  0  0  0  0  0
   -4.3080    0.9578    3.6426 H   0  0  0  0  0  0  0  0  0  0  0  0
   -1.8936    0.9168    3.1182 H   0  0  0  0  0  0  0  0  0  0  0  0
  1  2  2  0  0  0  0
  2  3  4  0  0  0  0
  3  4  2  0  0  0  0
  4  5  4  0  0  0  0
  1  6  4  0  0  0  0
  5  6  4  0  0  0  0
  6  7  4  0  0  0  0
  7  8  2  0  0  0  0
  8  9  4  0  0  0  0
  5 10  4  0  0  0  0
  9 10  2  0  0  0  0
 10 11  1  0  0  0  0
 11 12  1  0  0  0  0
 12 13  1  0  0  0  0
 13 14  2  0  0  0  0
 14 15  4  0  0  0  0
 15 16  2  0  0  0  0
 16 17  4  0  0  0  0
 13 18  4  0  0  0  0
 17 18  4  0  0  0  0
 18 19  4  0  0  0  0
 19 20  2  0  0  0  0
 20 21  4  0  0  0  0
 17 22  4  0  0  0  0
 21 22  2  0  0  0  0
 12 23  1  0  0  0  0
 23 24  1  0  0  0  0
 24 25  1  0  0  0  0
 25 26  4  0  0  0  0
 26 27  4  0  0  0  0
 27 28  4  0  0  0  0
 28 29  4  0  0  0  0
 29 30  1  0  0  0  0
 30 31  1  0  0  0  0
 30 32  1  0  0  0  0
 30 33  1  0  0  0  0
 25 34  4  0  0  0  0
 29 34  4  0  0  0  0
 24 35  2  0  0  0  0
 23 36  1  0  0  0  0
 36 37  1  0  0  0  0
 37 38  1  0  0  0  0
 37 39  2  0  0  0  0
 11 40  1  0  0  0  0
 36 40  1  0  0  0  0
 40 41  1  0  0  0  0
 41 42  1  0  0  0  0
 42 43  4  0  0  0  0
 43 44  4  0  0  0  0
 44 45  1  0  0  0  0
 45 46  1  0  0  0  0
 45 47  1  0  0  0  0
 45 48  1  0  0  0  0
 44 49  4  0  0  0  0
 49 50  4  0  0  0  0
 42 51  4  0  0  0  0
 50 51  4  0  0  0  0
 41 52  2  0  0  0  0
  1 53  1  0  0  0  0
  2 54  1  0  0  0  0
  3 55  1  0  0  0  0
  4 56  1  0  0  0  0
  7 57  1  0  0  0  0
  8 58  1  0  0  0  0
  9 59  1  0  0  0  0
 11 60  1  0  0  0  0
 12 61  1  0  0  0  0
 14 62  1  0  0  0  0
 15 63  1  0  0  0  0
 16 64  1  0  0  0  0
 19 65  1  0  0  0  0
 20 66  1  0  0  0  0
 21 67  1  0  0  0  0
 22 68  1  0  0  0  0
 26 69  1  0  0  0  0
 27 70  1  0  0  0  0
 28 71  1  0  0  0  0
 31 72  1  0  0  0  0
 31 73  1  0  0  0  0
 31 74  1  0  0  0  0
 32 75  1  0  0  0  0
 32 76  1  0  0  0  0
 32 77  1  0  0  0  0
 33 78  1  0  0  0  0
 33 79  1  0  0  0  0
 33 80  1  0  0  0  0
 34 81  1  0  0  0  0
 36 82  1  0  0  0  0
 38 83  1  0  0  0  0
 43 84  1  0  0  0  0
 46 85  1  0  0  0  0
 46 86  1  0  0  0  0
 46 87  1  0  0  0  0
 47 88  1  0  0  0  0
 47 89  1  0  0  0  0
 47 90  1  0  0  0  0
 48 91  1  0  0  0  0
 48 92  1  0  0  0  0
 48 93  1  0  0  0  0
 49 94  1  0  0  0  0
 50 95  1  0  0  0  0
 51 96  1  0  0  0  0
M  END
