28

Cl     3.493754    2.758842    2.214723
C      3.242353    1.338263    1.271318
C      1.942426    0.983993    0.899432
C      1.748199   -0.181896    0.126486
N      0.590342   -0.785385   -0.390735
C     -0.765912   -0.320493   -0.241001
N     -0.983310    0.813789    0.469093
C     -2.255729    1.249605    0.611875
C     -3.362586    0.603315    0.085021
C     -4.739596    1.160076    0.251897
C     -3.127819   -0.551643   -0.655432
C     -1.822975   -1.024163   -0.818241
C      2.846244   -0.965569   -0.257526
C      2.350712   -2.051978   -1.012378
C      0.985128   -1.922677   -1.079529
C      4.147830   -0.585115    0.131433
C      4.334998    0.568949    0.896034
H      1.107516    1.604477    1.207165
H     -2.357201    2.168277    1.184313
H     -5.487164    0.359839    0.251565
H     -4.833664    1.691544    1.204772
H     -4.965554    1.854112   -0.563474
H     -3.953897   -1.093224   -1.110464
H     -1.683916   -1.928379   -1.396784
H      2.931279   -2.847769   -1.460804
H      0.274736   -2.567944   -1.572481
H      5.004251   -1.186349   -0.161550
H      5.339556    0.857501    1.192964
