
  xtb     03172202203D
 xtb: 6.3.3 (4ae9cef)
 28 30  0     0  0            999 V2000
    3.3646    2.7559    2.1966 Cl  0  0  0  0  0  0  0  0  0  0  0  0
    3.1338    1.3249    1.2495 C   0  0  0  0  0  0  0  0  0  0  0  0
    1.8498    0.9750    0.8819 C   0  0  0  0  0  0  0  0  0  0  0  0
    1.7034   -0.1787    0.1229 C   0  0  0  0  0  0  0  0  0  0  0  0
    0.5737   -0.7875   -0.3944 N   0  0  0  0  0  0  0  0  0  0  0  0
   -0.7400   -0.3567   -0.2609 C   0  0  0  0  0  0  0  0  0  0  0  0
   -0.9340    0.7520    0.4433 N   0  0  0  0  0  0  0  0  0  0  0  0
   -2.1589    1.2115    0.6053 C   0  0  0  0  0  0  0  0  0  0  0  0
   -3.2943    0.6079    0.0812 C   0  0  0  0  0  0  0  0  0  0  0  0
   -4.6586    1.1861    0.2797 C   0  0  0  0  0  0  0  0  0  0  0  0
   -3.0882   -0.5553   -0.6562 C   0  0  0  0  0  0  0  0  0  0  0  0
   -1.8123   -1.0499   -0.8350 C   0  0  0  0  0  0  0  0  0  0  0  0
    2.8274   -0.9532   -0.2521 C   0  0  0  0  0  0  0  0  0  0  0  0
    2.3329   -2.0510   -1.0144 C   0  0  0  0  0  0  0  0  0  0  0  0
    0.9865   -1.9152   -1.0761 C   0  0  0  0  0  0  0  0  0  0  0  0
    4.1069   -0.5670    0.1384 C   0  0  0  0  0  0  0  0  0  0  0  0
    4.2557    0.5757    0.8912 C   0  0  0  0  0  0  0  0  0  0  0  0
    0.9986    1.5664    1.1691 H   0  0  0  0  0  0  0  0  0  0  0  0
   -2.2323    2.1169    1.1947 H   0  0  0  0  0  0  0  0  0  0  0  0
   -5.4132    0.4026    0.2846 H   0  0  0  0  0  0  0  0  0  0  0  0
   -4.7115    1.7380    1.2152 H   0  0  0  0  0  0  0  0  0  0  0  0
   -4.8927    1.8752   -0.5325 H   0  0  0  0  0  0  0  0  0  0  0  0
   -3.9309   -1.0755   -1.0896 H   0  0  0  0  0  0  0  0  0  0  0  0
   -1.6665   -1.9511   -1.4063 H   0  0  0  0  0  0  0  0  0  0  0  0
    2.9165   -2.8346   -1.4546 H   0  0  0  0  0  0  0  0  0  0  0  0
    0.2849   -2.5584   -1.5676 H   0  0  0  0  0  0  0  0  0  0  0  0
    4.9654   -1.1557   -0.1459 H   0  0  0  0  0  0  0  0  0  0  0  0
    5.2332    0.9018    1.2096 H   0  0  0  0  0  0  0  0  0  0  0  0
  1  2  1  0  0  0  0
  2  3  4  0  0  0  0
  3  4  4  0  0  0  0
  4  5  1  0  0  0  0
  5  6  1  0  0  0  0
  6  7  4  0  0  0  0
  7  8  4  0  0  0  0
  8  9  4  0  0  0  0
  9 10  1  0  0  0  0
  9 11  4  0  0  0  0
  6 12  4  0  0  0  0
 11 12  4  0  0  0  0
  4 13  4  0  0  0  0
 13 14  4  0  0  0  0
  5 15  1  0  0  0  0
 14 15  2  0  0  0  0
 13 16  4  0  0  0  0
  2 17  4  0  0  0  0
 16 17  4  0  0  0  0
  3 18  1  0  0  0  0
  8 19  1  0  0  0  0
 10 20  1  0  0  0  0
 10 21  1  0  0  0  0
 10 22  1  0  0  0  0
 11 23  1  0  0  0  0
 12 24  1  0  0  0  0
 14 25  1  0  0  0  0
 15 26  1  0  0  0  0
 16 27  1  0  0  0  0
 17 28  1  0  0  0  0
M  END
