
  xtb     03172201483D
 xtb: 6.3.3 (4ae9cef)
 72 78  0     0  0            999 V2000
    1.3337   -5.3977    0.1580 C   0  0  0  0  0  0  0  0  0  0  0  0
    0.1537   -5.6019   -0.4972 C   0  0  0  0  0  0  0  0  0  0  0  0
   -0.5459   -4.5082   -1.0258 C   0  0  0  0  0  0  0  0  0  0  0  0
   -0.0638   -3.2371   -0.8846 C   0  0  0  0  0  0  0  0  0  0  0  0
    1.1442   -2.9830   -0.1977 C   0  0  0  0  0  0  0  0  0  0  0  0
    1.8568   -4.0980    0.3259 C   0  0  0  0  0  0  0  0  0  0  0  0
    3.0706   -3.8937    1.0132 C   0  0  0  0  0  0  0  0  0  0  0  0
    3.5614   -2.6331    1.1944 C   0  0  0  0  0  0  0  0  0  0  0  0
    2.8533   -1.5297    0.7037 C   0  0  0  0  0  0  0  0  0  0  0  0
    1.6790   -1.6833    0.0107 C   0  0  0  0  0  0  0  0  0  0  0  0
    0.9226   -0.4579   -0.4331 C   0  0  0  0  0  0  0  0  0  0  0  0
    0.0016    0.0449    0.7030 C   0  0  0  0  0  0  0  0  0  0  0  0
   -1.3183   -0.6757    0.7018 C   0  0  0  0  0  0  0  0  0  0  0  0
   -1.4989   -1.6410    1.6624 C   0  0  0  0  0  0  0  0  0  0  0  0
   -2.6840   -2.3807    1.7463 C   0  0  0  0  0  0  0  0  0  0  0  0
   -3.7076   -2.1234    0.8809 C   0  0  0  0  0  0  0  0  0  0  0  0
   -3.5615   -1.1563   -0.1337 C   0  0  0  0  0  0  0  0  0  0  0  0
   -2.3359   -0.4434   -0.2642 C   0  0  0  0  0  0  0  0  0  0  0  0
   -2.2059    0.4515   -1.3507 C   0  0  0  0  0  0  0  0  0  0  0  0
   -3.2433    0.6685   -2.2147 C   0  0  0  0  0  0  0  0  0  0  0  0
   -4.4662    0.0044   -2.0500 C   0  0  0  0  0  0  0  0  0  0  0  0
   -4.6143   -0.8984   -1.0366 C   0  0  0  0  0  0  0  0  0  0  0  0
    0.0011    1.4838    0.5083 N   0  0  0  0  0  0  0  0  0  0  0  0
   -0.9918    2.3956    0.6168 C   0  0  0  0  0  0  0  0  0  0  0  0
   -2.1705    2.0562    1.4090 C   0  0  0  0  0  0  0  0  0  0  0  0
   -3.4515    2.5302    1.2874 C   0  0  0  0  0  0  0  0  0  0  0  0
   -4.1984    1.9015    2.3033 C   0  0  0  0  0  0  0  0  0  0  0  0
   -3.3248    1.1029    2.9888 C   0  0  0  0  0  0  0  0  0  0  0  0
   -3.5182    0.2055    4.1556 C   0  0  0  0  0  0  0  0  0  0  0  0
   -2.0958    1.1939    2.4509 O   0  0  0  0  0  0  0  0  0  0  0  0
   -0.8706    3.4916    0.0795 O   0  0  0  0  0  0  0  0  0  0  0  0
    1.2128    1.9073   -0.1730 C   0  0  0  0  0  0  0  0  0  0  0  0
    0.8461    2.8907   -1.3105 C   0  0  0  0  0  0  0  0  0  0  0  0
    1.4412    4.0719   -1.1718 O   0  0  0  0  0  0  0  0  0  0  0  0
    0.2370    2.5504   -2.2897 O   0  0  0  0  0  0  0  0  0  0  0  0
    1.7890    0.6851   -0.6846 N   0  0  0  0  0  0  0  0  0  0  0  0
    2.6904    0.5863   -1.7111 C   0  0  0  0  0  0  0  0  0  0  0  0
    3.5616    1.7436   -1.9306 C   0  0  0  0  0  0  0  0  0  0  0  0
    4.2974    2.0592   -3.0441 C   0  0  0  0  0  0  0  0  0  0  0  0
    4.9809    3.2543   -2.7394 C   0  0  0  0  0  0  0  0  0  0  0  0
    4.6318    3.5831   -1.4588 C   0  0  0  0  0  0  0  0  0  0  0  0
    5.0193    4.7236   -0.5902 C   0  0  0  0  0  0  0  0  0  0  0  0
    3.7768    2.6701   -0.9639 O   0  0  0  0  0  0  0  0  0  0  0  0
    2.7981   -0.4345   -2.3629 O   0  0  0  0  0  0  0  0  0  0  0  0
    1.8899   -6.2317    0.5624 H   0  0  0  0  0  0  0  0  0  0  0  0
   -0.2425   -6.5994   -0.6188 H   0  0  0  0  0  0  0  0  0  0  0  0
   -1.4740   -4.6749   -1.5525 H   0  0  0  0  0  0  0  0  0  0  0  0
   -0.6266   -2.4235   -1.3126 H   0  0  0  0  0  0  0  0  0  0  0  0
    3.6015   -4.7537    1.3956 H   0  0  0  0  0  0  0  0  0  0  0  0
    4.4907   -2.4737    1.7210 H   0  0  0  0  0  0  0  0  0  0  0  0
    3.2495   -0.5381    0.8684 H   0  0  0  0  0  0  0  0  0  0  0  0
    0.3512   -0.6728   -1.3424 H   0  0  0  0  0  0  0  0  0  0  0  0
    0.5027   -0.1612    1.6617 H   0  0  0  0  0  0  0  0  0  0  0  0
   -0.7133   -1.8322    2.3790 H   0  0  0  0  0  0  0  0  0  0  0  0
   -2.7808   -3.1408    2.5074 H   0  0  0  0  0  0  0  0  0  0  0  0
   -4.6416   -2.6619    0.9525 H   0  0  0  0  0  0  0  0  0  0  0  0
   -1.2827    0.9744   -1.5330 H   0  0  0  0  0  0  0  0  0  0  0  0
   -3.1128    1.3588   -3.0338 H   0  0  0  0  0  0  0  0  0  0  0  0
   -5.2779    0.1992   -2.7352 H   0  0  0  0  0  0  0  0  0  0  0  0
   -5.5416   -1.4391   -0.9107 H   0  0  0  0  0  0  0  0  0  0  0  0
   -3.7965    3.2253    0.5512 H   0  0  0  0  0  0  0  0  0  0  0  0
   -5.2418    2.0267    2.5050 H   0  0  0  0  0  0  0  0  0  0  0  0
   -2.6780    0.2971    4.8401 H   0  0  0  0  0  0  0  0  0  0  0  0
   -3.5722   -0.8317    3.8244 H   0  0  0  0  0  0  0  0  0  0  0  0
   -4.4382    0.4594    4.6726 H   0  0  0  0  0  0  0  0  0  0  0  0
    1.8883    2.4204    0.5287 H   0  0  0  0  0  0  0  0  0  0  0  0
    1.1454    4.6730   -1.8732 H   0  0  0  0  0  0  0  0  0  0  0  0
    4.3241    1.4991   -3.9551 H   0  0  0  0  0  0  0  0  0  0  0  0
    5.6443    3.7976   -3.3802 H   0  0  0  0  0  0  0  0  0  0  0  0
    5.6064    4.3754    0.2589 H   0  0  0  0  0  0  0  0  0  0  0  0
    5.6077    5.4373   -1.1580 H   0  0  0  0  0  0  0  0  0  0  0  0
    4.1259    5.2119   -0.2046 H   0  0  0  0  0  0  0  0  0  0  0  0
  1  2  2  0  0  0  0
  2  3  4  0  0  0  0
  3  4  2  0  0  0  0
  4  5  4  0  0  0  0
  1  6  4  0  0  0  0
  5  6  4  0  0  0  0
  6  7  4  0  0  0  0
  7  8  2  0  0  0  0
  8  9  4  0  0  0  0
  5 10  4  0  0  0  0
  9 10  2  0  0  0  0
 10 11  1  0  0  0  0
 11 12  1  0  0  0  0
 12 13  1  0  0  0  0
 13 14  2  0  0  0  0
 14 15  4  0  0  0  0
 15 16  2  0  0  0  0
 16 17  4  0  0  0  0
 13 18  4  0  0  0  0
 17 18  4  0  0  0  0
 18 19  4  0  0  0  0
 19 20  2  0  0  0  0
 20 21  4  0  0  0  0
 17 22  4  0  0  0  0
 21 22  2  0  0  0  0
 12 23  1  0  0  0  0
 23 24  4  0  0  0  0
 24 25  1  0  0  0  0
 25 26  2  0  0  0  0
 26 27  4  0  0  0  0
 27 28  2  0  0  0  0
 28 29  1  0  0  0  0
 25 30  1  0  0  0  0
 28 30  1  0  0  0  0
 24 31  2  0  0  0  0
 23 32  1  0  0  0  0
 32 33  1  0  0  0  0
 33 34  1  0  0  0  0
 33 35  2  0  0  0  0
 11 36  1  0  0  0  0
 32 36  1  0  0  0  0
 36 37  1  0  0  0  0
 37 38  1  0  0  0  0
 38 39  2  0  0  0  0
 39 40  4  0  0  0  0
 40 41  2  0  0  0  0
 41 42  1  0  0  0  0
 38 43  1  0  0  0  0
 41 43  1  0  0  0  0
 37 44  2  0  0  0  0
  1 45  1  0  0  0  0
  2 46  1  0  0  0  0
  3 47  1  0  0  0  0
  4 48  1  0  0  0  0
  7 49  1  0  0  0  0
  8 50  1  0  0  0  0
  9 51  1  0  0  0  0
 11 52  1  0  0  0  0
 12 53  1  0  0  0  0
 14 54  1  0  0  0  0
 15 55  1  0  0  0  0
 16 56  1  0  0  0  0
 19 57  1  0  0  0  0
 20 58  1  0  0  0  0
 21 59  1  0  0  0  0
 22 60  1  0  0  0  0
 26 61  1  0  0  0  0
 27 62  1  0  0  0  0
 29 63  1  0  0  0  0
 29 64  1  0  0  0  0
 29 65  1  0  0  0  0
 32 66  1  0  0  0  0
 34 67  1  0  0  0  0
 39 68  1  0  0  0  0
 40 69  1  0  0  0  0
 42 70  1  0  0  0  0
 42 71  1  0  0  0  0
 42 72  1  0  0  0  0
M  END
