
  xtb     03172201213D
 xtb: 6.3.3 (4ae9cef)
 74 80  0     0  0            999 V2000
    2.1170    0.6567    1.6015 C   0  0  0  0  0  0  0  0  0  0  0  0
    3.1336    0.4282    2.4818 C   0  0  0  0  0  0  0  0  0  0  0  0
    3.5311   -0.8873    2.8026 C   0  0  0  0  0  0  0  0  0  0  0  0
    4.6080   -1.1569    3.6708 C   0  0  0  0  0  0  0  0  0  0  0  0
    4.9718   -2.4443    3.9516 C   0  0  0  0  0  0  0  0  0  0  0  0
    4.2711   -3.5196    3.3834 C   0  0  0  0  0  0  0  0  0  0  0  0
    3.2186   -3.2906    2.5421 C   0  0  0  0  0  0  0  0  0  0  0  0
    2.8246   -1.9744    2.2255 C   0  0  0  0  0  0  0  0  0  0  0  0
    1.7715   -1.7052    1.3287 C   0  0  0  0  0  0  0  0  0  0  0  0
    1.4409   -0.4201    0.9926 C   0  0  0  0  0  0  0  0  0  0  0  0
    0.3575   -0.1402   -0.0128 C   0  0  0  0  0  0  0  0  0  0  0  0
   -0.8929    0.4750    0.6564 C   0  0  0  0  0  0  0  0  0  0  0  0
   -2.0338   -0.5128    0.6747 C   0  0  0  0  0  0  0  0  0  0  0  0
   -2.8851   -0.6465   -0.3893 C   0  0  0  0  0  0  0  0  0  0  0  0
   -3.9227   -1.5998   -0.3666 C   0  0  0  0  0  0  0  0  0  0  0  0
   -4.8197   -1.7439   -1.4456 C   0  0  0  0  0  0  0  0  0  0  0  0
   -5.8186   -2.6756   -1.4005 C   0  0  0  0  0  0  0  0  0  0  0  0
   -5.9657   -3.5044   -0.2765 C   0  0  0  0  0  0  0  0  0  0  0  0
   -5.1110   -3.3896    0.7839 C   0  0  0  0  0  0  0  0  0  0  0  0
   -4.0697   -2.4387    0.7684 C   0  0  0  0  0  0  0  0  0  0  0  0
   -3.1686   -2.2876    1.8431 C   0  0  0  0  0  0  0  0  0  0  0  0
   -2.1785   -1.3488    1.7984 C   0  0  0  0  0  0  0  0  0  0  0  0
   -1.1676    1.6742   -0.1152 N   0  0  0  0  0  0  0  0  0  0  0  0
   -2.2221    2.4644    0.2166 C   0  0  0  0  0  0  0  0  0  0  0  0
   -2.4508    3.6511   -0.6520 C   0  0  0  0  0  0  0  0  0  0  0  0
   -3.6386    3.8443   -1.2867 C   0  0  0  0  0  0  0  0  0  0  0  0
   -3.6824    5.3057   -2.1720 S   0  0  0  0  0  0  0  0  0  0  0  0
   -2.0890    5.7100   -1.6628 C   0  0  0  0  0  0  0  0  0  0  0  0
   -1.5535    4.7455   -0.8636 C   0  0  0  0  0  0  0  0  0  0  0  0
   -0.3213    4.7492   -0.2774 O   0  0  0  0  0  0  0  0  0  0  0  0
    0.4601    5.9085   -0.4558 C   0  0  0  0  0  0  0  0  0  0  0  0
   -2.9424    2.1970    1.1549 O   0  0  0  0  0  0  0  0  0  0  0  0
   -0.2366    1.8833   -1.1834 C   0  0  0  0  0  0  0  0  0  0  0  0
   -0.9022    1.8151   -2.5917 C   0  0  0  0  0  0  0  0  0  0  0  0
   -0.1010    2.1496   -3.5798 O   0  0  0  0  0  0  0  0  0  0  0  0
   -2.0529    1.5156   -2.7401 O   0  0  0  0  0  0  0  0  0  0  0  0
    0.7646    0.8448   -1.0025 N   0  0  0  0  0  0  0  0  0  0  0  0
    1.9611    0.9632   -1.6006 C   0  0  0  0  0  0  0  0  0  0  0  0
    2.9877   -0.0613   -1.3141 C   0  0  0  0  0  0  0  0  0  0  0  0
    4.2390    0.2496   -0.8762 C   0  0  0  0  0  0  0  0  0  0  0  0
    5.2241   -1.1314   -0.6734 S   0  0  0  0  0  0  0  0  0  0  0  0
    3.9674   -2.1619   -1.2405 C   0  0  0  0  0  0  0  0  0  0  0  0
    2.8359   -1.4668   -1.5430 C   0  0  0  0  0  0  0  0  0  0  0  0
    1.6661   -1.9499   -2.0271 O   0  0  0  0  0  0  0  0  0  0  0  0
    1.6125   -3.3321   -2.2976 C   0  0  0  0  0  0  0  0  0  0  0  0
    2.1942    1.9057   -2.3611 O   0  0  0  0  0  0  0  0  0  0  0  0
    1.8277    1.6673    1.3508 H   0  0  0  0  0  0  0  0  0  0  0  0
    3.6565    1.2548    2.9404 H   0  0  0  0  0  0  0  0  0  0  0  0
    5.1434   -0.3260    4.1069 H   0  0  0  0  0  0  0  0  0  0  0  0
    5.8009   -2.6443    4.6138 H   0  0  0  0  0  0  0  0  0  0  0  0
    4.5720   -4.5300    3.6174 H   0  0  0  0  0  0  0  0  0  0  0  0
    2.6748   -4.1147    2.1024 H   0  0  0  0  0  0  0  0  0  0  0  0
    1.2344   -2.5347    0.8902 H   0  0  0  0  0  0  0  0  0  0  0  0
    0.0774   -1.0672   -0.5289 H   0  0  0  0  0  0  0  0  0  0  0  0
   -0.6702    0.7710    1.6912 H   0  0  0  0  0  0  0  0  0  0  0  0
   -2.7889   -0.0110   -1.2572 H   0  0  0  0  0  0  0  0  0  0  0  0
   -4.6996   -1.0994   -2.3043 H   0  0  0  0  0  0  0  0  0  0  0  0
   -6.5046   -2.7814   -2.2283 H   0  0  0  0  0  0  0  0  0  0  0  0
   -6.7629   -4.2335   -0.2576 H   0  0  0  0  0  0  0  0  0  0  0  0
   -5.2221   -4.0241    1.6521 H   0  0  0  0  0  0  0  0  0  0  0  0
   -3.2800   -2.9246    2.7091 H   0  0  0  0  0  0  0  0  0  0  0  0
   -1.4958   -1.2335    2.6286 H   0  0  0  0  0  0  0  0  0  0  0  0
   -4.4792    3.1809   -1.2932 H   0  0  0  0  0  0  0  0  0  0  0  0
   -1.6572    6.6345   -1.9865 H   0  0  0  0  0  0  0  0  0  0  0  0
    0.7073    6.0609   -1.5112 H   0  0  0  0  0  0  0  0  0  0  0  0
   -0.0553    6.7937   -0.0727 H   0  0  0  0  0  0  0  0  0  0  0  0
    1.3741    5.7436    0.1121 H   0  0  0  0  0  0  0  0  0  0  0  0
    0.2569    2.8680   -1.1025 H   0  0  0  0  0  0  0  0  0  0  0  0
    0.8463    2.2525   -3.2754 H   0  0  0  0  0  0  0  0  0  0  0  0
    4.6169    1.2228   -0.6370 H   0  0  0  0  0  0  0  0  0  0  0  0
    4.1517   -3.2137   -1.3100 H   0  0  0  0  0  0  0  0  0  0  0  0
    0.6123   -3.5224   -2.6823 H   0  0  0  0  0  0  0  0  0  0  0  0
    1.7759   -3.9201   -1.3890 H   0  0  0  0  0  0  0  0  0  0  0  0
    2.3555   -3.6168   -3.0481 H   0  0  0  0  0  0  0  0  0  0  0  0
  1  2  2  0  0  0  0
  2  3  4  0  0  0  0
  3  4  4  0  0  0  0
  4  5  2  0  0  0  0
  5  6  4  0  0  0  0
  6  7  2  0  0  0  0
  3  8  4  0  0  0  0
  7  8  4  0  0  0  0
  8  9  4  0  0  0  0
  1 10  4  0  0  0  0
  9 10  2  0  0  0  0
 10 11  1  0  0  0  0
 11 12  1  0  0  0  0
 12 13  1  0  0  0  0
 13 14  2  0  0  0  0
 14 15  4  0  0  0  0
 15 16  4  0  0  0  0
 16 17  2  0  0  0  0
 17 18  4  0  0  0  0
 18 19  2  0  0  0  0
 15 20  4  0  0  0  0
 19 20  4  0  0  0  0
 20 21  4  0  0  0  0
 13 22  4  0  0  0  0
 21 22  2  0  0  0  0
 12 23  1  0  0  0  0
 23 24  4  0  0  0  0
 24 25  1  0  0  0  0
 25 26  2  0  0  0  0
 26 27  1  0  0  0  0
 27 28  1  0  0  0  0
 25 29  1  0  0  0  0
 28 29  2  0  0  0  0
 29 30  1  0  0  0  0
 30 31  1  0  0  0  0
 24 32  2  0  0  0  0
 23 33  1  0  0  0  0
 33 34  1  0  0  0  0
 34 35  4  0  0  0  0
 34 36  2  0  0  0  0
 11 37  1  0  0  0  0
 33 37  1  0  0  0  0
 37 38  4  0  0  0  0
 38 39  1  0  0  0  0
 39 40  2  0  0  0  0
 40 41  1  0  0  0  0
 41 42  1  0  0  0  0
 39 43  1  0  0  0  0
 42 43  2  0  0  0  0
 43 44  1  0  0  0  0
 44 45  1  0  0  0  0
 38 46  2  0  0  0  0
  1 47  1  0  0  0  0
  2 48  1  0  0  0  0
  4 49  1  0  0  0  0
  5 50  1  0  0  0  0
  6 51  1  0  0  0  0
  7 52  1  0  0  0  0
  9 53  1  0  0  0  0
 11 54  1  0  0  0  0
 12 55  1  0  0  0  0
 14 56  1  0  0  0  0
 16 57  1  0  0  0  0
 17 58  1  0  0  0  0
 18 59  1  0  0  0  0
 19 60  1  0  0  0  0
 21 61  1  0  0  0  0
 22 62  1  0  0  0  0
 26 63  1  0  0  0  0
 28 64  1  0  0  0  0
 31 65  1  0  0  0  0
 31 66  1  0  0  0  0
 31 67  1  0  0  0  0
 33 68  1  0  0  0  0
 35 69  1  0  0  0  0
 40 70  1  0  0  0  0
 42 71  1  0  0  0  0
 45 72  1  0  0  0  0
 45 73  1  0  0  0  0
 45 74  1  0  0  0  0
M  END
