60

C     -2.232219    0.769003    2.028428
C     -2.834278   -0.570917    1.674609
F     -1.888680   -1.493632    1.343876
F     -3.695625   -0.510545    0.624624
F     -3.541611   -1.140100    2.694797
C     -2.715035    1.410588    3.192857
C     -2.219510    2.646824    3.604453
C     -1.233029    3.274207    2.858467
C     -0.748904    2.665118    1.700860
C     -1.233500    1.409886    1.256366
C     -0.603440    0.866602   -0.022953
C      0.564530   -0.148560    0.190163
C      1.884919    0.598150    0.382578
C      2.530119    0.722021    1.640082
C      2.031270    0.117267    2.943061
F      2.282781    0.920809    4.019365
F      0.695256   -0.119520    2.980877
F      2.630443   -1.072909    3.227571
C      3.749099    1.433476    1.712253
C      4.311186    2.038165    0.589354
C      3.668486    1.942367   -0.634853
C      2.469595    1.236156   -0.737096
N      0.488716   -0.968074   -1.028102
C      1.384140   -1.892048   -1.548375
C      2.563237   -2.229711   -0.780383
C      3.882113   -2.004537   -1.123056
C      4.762135   -2.485732   -0.124733
Br     6.630467   -2.264556   -0.252564
C      4.122276   -3.111097    0.914095
S      2.425524   -3.124670    0.674023
O      1.182536   -2.372462   -2.665701
C     -0.851945   -0.927192   -1.601437
C     -1.675872   -2.227575   -1.315826
O     -0.994104   -3.199288   -0.668272
O     -2.849446   -2.422717   -1.594686
N     -1.493720    0.244908   -1.000376
C     -2.415625    1.052296   -1.671579
C     -3.119017    0.501729   -2.808915
C     -4.328040   -0.168691   -2.820763
C     -4.713622   -0.513871   -4.138528
Br    -6.295937   -1.469516   -4.496799
C     -3.828639   -0.077738   -5.095300
S     -2.518236    0.778564   -4.391080
O     -2.622104    2.207259   -1.301775
H     -3.491453    0.936993    3.794612
H     -2.609621    3.119234    4.503168
H     -0.844591    4.243136    3.166518
H      0.013017    3.196907    1.129129
H     -0.211036    1.737842   -0.569943
H      0.365547   -0.842527    1.006473
H      4.270171    1.524686    2.666322
H      5.249696    2.584190    0.674550
H      4.101539    2.417634   -1.514772
H      1.994193    1.179676   -1.715659
H      4.178977   -1.493209   -2.030388
H      4.555631   -3.568494    1.792794
H     -0.757873   -0.823663   -2.685898
H     -1.650533   -3.919516   -0.559351
H     -4.883499   -0.409154   -1.920216
H     -3.886856   -0.203470   -6.166945
