
  xtb     03162223003D
 xtb: 6.3.3 (4ae9cef)
 72 76  0     0  0            999 V2000
   -2.8144    2.1202    0.0806 C   0  0  0  0  0  0  0  0  0  0  0  0
   -3.8217    2.3741    0.9944 C   0  0  0  0  0  0  0  0  0  0  0  0
   -3.7730    1.8083    2.2560 C   0  0  0  0  0  0  0  0  0  0  0  0
   -2.7073    0.9959    2.6065 C   0  0  0  0  0  0  0  0  0  0  0  0
   -1.6999    0.7407    1.6954 C   0  0  0  0  0  0  0  0  0  0  0  0
   -1.7554    1.2916    0.4201 C   0  0  0  0  0  0  0  0  0  0  0  0
   -0.6569    1.0013   -0.5694 C   0  0  0  0  0  0  0  0  0  0  0  0
    0.6916    1.5978   -0.1026 C   0  0  0  0  0  0  0  0  0  0  0  0
    1.1452    2.7279   -0.9918 C   0  0  0  0  0  0  0  0  0  0  0  0
    0.9404    4.0437   -0.6020 C   0  0  0  0  0  0  0  0  0  0  0  0
    1.3354    5.0849   -1.4230 C   0  0  0  0  0  0  0  0  0  0  0  0
    1.9412    4.8198   -2.6393 C   0  0  0  0  0  0  0  0  0  0  0  0
    2.1461    3.5089   -3.0344 C   0  0  0  0  0  0  0  0  0  0  0  0
    1.7455    2.4677   -2.2166 C   0  0  0  0  0  0  0  0  0  0  0  0
    1.6257    0.4828   -0.1260 N   0  0  0  0  0  0  0  0  0  0  0  0
    2.8082    0.6032    0.5430 C   0  0  0  0  0  0  0  0  0  0  0  0
    3.7295   -0.5565    0.4084 C   0  0  0  0  0  0  0  0  0  0  0  0
    4.1963   -1.2022    1.5453 C   0  0  0  0  0  0  0  0  0  0  0  0
    5.0620   -2.2804    1.4538 C   0  0  0  0  0  0  0  0  0  0  0  0
    5.5232   -2.9822    2.6942 C   0  0  0  0  0  0  0  0  0  0  0  0
    5.4944   -2.7037    0.1932 C   0  0  0  0  0  0  0  0  0  0  0  0
    6.4250   -3.8685    0.0596 C   0  0  0  0  0  0  0  0  0  0  0  0
    5.0540   -2.0280   -0.9362 C   0  0  0  0  0  0  0  0  0  0  0  0
    4.1765   -0.9664   -0.8403 C   0  0  0  0  0  0  0  0  0  0  0  0
    3.0773    1.6110    1.1645 O   0  0  0  0  0  0  0  0  0  0  0  0
    1.0327   -0.7234   -0.6437 C   0  0  0  0  0  0  0  0  0  0  0  0
    1.2971   -1.9614    0.2421 C   0  0  0  0  0  0  0  0  0  0  0  0
    0.9030   -1.7391    1.5018 O   0  0  0  0  0  0  0  0  0  0  0  0
    1.9052   -2.9299   -0.1115 O   0  0  0  0  0  0  0  0  0  0  0  0
   -0.3838   -0.4207   -0.6944 N   0  0  0  0  0  0  0  0  0  0  0  0
   -1.2666   -1.4397   -0.5786 C   0  0  0  0  0  0  0  0  0  0  0  0
   -2.7016   -1.0840   -0.7238 C   0  0  0  0  0  0  0  0  0  0  0  0
   -3.1689   -0.4419   -1.8621 C   0  0  0  0  0  0  0  0  0  0  0  0
   -4.5091   -0.1208   -1.9603 C   0  0  0  0  0  0  0  0  0  0  0  0
   -5.3986   -0.4139   -0.9357 C   0  0  0  0  0  0  0  0  0  0  0  0
   -6.8375   -0.0169   -1.0487 C   0  0  0  0  0  0  0  0  0  0  0  0
   -4.9343   -1.0868    0.1991 C   0  0  0  0  0  0  0  0  0  0  0  0
   -5.8667   -1.4283    1.3191 C   0  0  0  0  0  0  0  0  0  0  0  0
   -3.5948   -1.4300    0.2809 C   0  0  0  0  0  0  0  0  0  0  0  0
   -0.8692   -2.5776   -0.3887 O   0  0  0  0  0  0  0  0  0  0  0  0
   -2.8549    2.5604   -0.9050 H   0  0  0  0  0  0  0  0  0  0  0  0
   -4.6468    3.0134    0.7176 H   0  0  0  0  0  0  0  0  0  0  0  0
   -4.5614    2.0029    2.9680 H   0  0  0  0  0  0  0  0  0  0  0  0
   -2.6622    0.5595    3.5932 H   0  0  0  0  0  0  0  0  0  0  0  0
   -0.8739    0.0980    1.9647 H   0  0  0  0  0  0  0  0  0  0  0  0
   -0.9206    1.4190   -1.5511 H   0  0  0  0  0  0  0  0  0  0  0  0
    0.6181    1.9686    0.9278 H   0  0  0  0  0  0  0  0  0  0  0  0
    0.4758    4.2499    0.3511 H   0  0  0  0  0  0  0  0  0  0  0  0
    1.1764    6.1060   -1.1092 H   0  0  0  0  0  0  0  0  0  0  0  0
    2.2565    5.6325   -3.2768 H   0  0  0  0  0  0  0  0  0  0  0  0
    2.6207    3.2963   -3.9812 H   0  0  0  0  0  0  0  0  0  0  0  0
    1.9086    1.4458   -2.5273 H   0  0  0  0  0  0  0  0  0  0  0  0
    3.8599   -0.8587    2.5136 H   0  0  0  0  0  0  0  0  0  0  0  0
    5.1057   -2.5123    3.5811 H   0  0  0  0  0  0  0  0  0  0  0  0
    6.6099   -2.9566    2.7682 H   0  0  0  0  0  0  0  0  0  0  0  0
    5.2174   -4.0280    2.6757 H   0  0  0  0  0  0  0  0  0  0  0  0
    5.9691   -4.7678    0.4726 H   0  0  0  0  0  0  0  0  0  0  0  0
    7.3516   -3.6859    0.6036 H   0  0  0  0  0  0  0  0  0  0  0  0
    6.6656   -4.0516   -0.9844 H   0  0  0  0  0  0  0  0  0  0  0  0
    5.3979   -2.3456   -1.9099 H   0  0  0  0  0  0  0  0  0  0  0  0
    3.8521   -0.4475   -1.7304 H   0  0  0  0  0  0  0  0  0  0  0  0
    1.4025   -0.9738   -1.6546 H   0  0  0  0  0  0  0  0  0  0  0  0
    1.0718   -2.5296    2.0373 H   0  0  0  0  0  0  0  0  0  0  0  0
   -2.4922   -0.2065   -2.6701 H   0  0  0  0  0  0  0  0  0  0  0  0
   -4.8715    0.3770   -2.8487 H   0  0  0  0  0  0  0  0  0  0  0  0
   -7.0238    0.4993   -1.9867 H   0  0  0  0  0  0  0  0  0  0  0  0
   -7.1155    0.6422   -0.2270 H   0  0  0  0  0  0  0  0  0  0  0  0
   -7.4830   -0.8932   -1.0012 H   0  0  0  0  0  0  0  0  0  0  0  0
   -5.3425   -1.9673    2.1033 H   0  0  0  0  0  0  0  0  0  0  0  0
   -6.2934   -0.5214    1.7467 H   0  0  0  0  0  0  0  0  0  0  0  0
   -6.6895   -2.0462    0.9617 H   0  0  0  0  0  0  0  0  0  0  0  0
   -3.2241   -1.9561    1.1483 H   0  0  0  0  0  0  0  0  0  0  0  0
  1  2  4  0  0  0  0
  2  3  4  0  0  0  0
  3  4  4  0  0  0  0
  4  5  4  0  0  0  0
  1  6  4  0  0  0  0
  5  6  4  0  0  0  0
  6  7  1  0  0  0  0
  7  8  1  0  0  0  0
  8  9  1  0  0  0  0
  9 10  4  0  0  0  0
 10 11  4  0  0  0  0
 11 12  4  0  0  0  0
 12 13  4  0  0  0  0
  9 14  4  0  0  0  0
 13 14  4  0  0  0  0
  8 15  1  0  0  0  0
 15 16  1  0  0  0  0
 16 17  1  0  0  0  0
 17 18  4  0  0  0  0
 18 19  4  0  0  0  0
 19 20  1  0  0  0  0
 19 21  4  0  0  0  0
 21 22  1  0  0  0  0
 21 23  4  0  0  0  0
 17 24  4  0  0  0  0
 23 24  4  0  0  0  0
 16 25  2  0  0  0  0
 15 26  1  0  0  0  0
 26 27  1  0  0  0  0
 27 28  1  0  0  0  0
 27 29  2  0  0  0  0
  7 30  1  0  0  0  0
 26 30  1  0  0  0  0
 30 31  4  0  0  0  0
 31 32  1  0  0  0  0
 32 33  4  0  0  0  0
 33 34  4  0  0  0  0
 34 35  4  0  0  0  0
 35 36  1  0  0  0  0
 35 37  4  0  0  0  0
 37 38  1  0  0  0  0
 32 39  4  0  0  0  0
 37 39  4  0  0  0  0
 31 40  2  0  0  0  0
  1 41  1  0  0  0  0
  2 42  1  0  0  0  0
  3 43  1  0  0  0  0
  4 44  1  0  0  0  0
  5 45  1  0  0  0  0
  7 46  1  0  0  0  0
  8 47  1  0  0  0  0
 10 48  1  0  0  0  0
 11 49  1  0  0  0  0
 12 50  1  0  0  0  0
 13 51  1  0  0  0  0
 14 52  1  0  0  0  0
 18 53  1  0  0  0  0
 20 54  1  0  0  0  0
 20 55  1  0  0  0  0
 20 56  1  0  0  0  0
 22 57  1  0  0  0  0
 22 58  1  0  0  0  0
 22 59  1  0  0  0  0
 23 60  1  0  0  0  0
 24 61  1  0  0  0  0
 26 62  1  0  0  0  0
 28 63  1  0  0  0  0
 33 64  1  0  0  0  0
 34 65  1  0  0  0  0
 36 66  1  0  0  0  0
 36 67  1  0  0  0  0
 36 68  1  0  0  0  0
 38 69  1  0  0  0  0
 38 70  1  0  0  0  0
 38 71  1  0  0  0  0
 39 72  1  0  0  0  0
M  END
