74

C     -3.494684   -0.789585   -1.159537
C     -4.297088   -1.646470   -1.921178
C     -3.892488   -2.960431   -2.192013
C     -4.682355   -3.824943   -2.969375
C     -4.273172   -5.137477   -3.220902
C     -3.068441   -5.599685   -2.696890
C     -2.273403   -4.750454   -1.921909
C     -2.670519   -3.424109   -1.662610
C     -1.879992   -2.548195   -0.890703
C     -2.253775   -1.207131   -0.661984
C     -1.366758   -0.297524    0.186426
C      0.132416   -0.312567   -0.241420
C      1.054076   -0.346082    0.976372
C      1.793519   -1.511993    1.252343
C      2.624276   -1.607904    2.382615
C      3.359951   -2.774396    2.659277
C      4.165507   -2.852608    3.797790
C      4.246106   -1.768588    4.668378
C      3.528201   -0.601154    4.402319
C      2.714722   -0.506242    3.262877
C      1.984242    0.657136    2.985588
C      1.165607    0.736755    1.857976
N      0.308512    0.912637   -1.037513
C      1.464952    1.352000   -1.637391
C      2.627435    0.450234   -1.763142
C      2.522719   -0.762797   -2.459195
C      3.643591   -1.582300   -2.584871
C      4.871322   -1.161322   -2.061482
C      4.986127    0.075880   -1.408512
C      6.269918    0.544934   -0.958540
N      7.309933    0.952690   -0.638053
C      3.855923    0.879907   -1.251840
O      1.538262    2.485342   -2.115311
C     -0.827225    1.812235   -0.859324
C     -1.562290    2.145143   -2.207289
O     -0.771300    2.666264   -3.179636
O     -2.774127    2.060100   -2.378086
N     -1.702471    1.129375    0.092010
C     -2.466384    1.723932    1.079272
C     -2.510761    3.196170    1.167889
C     -1.937123    3.795137    2.294361
C     -1.932195    5.186903    2.415639
C     -1.348363    5.802723    3.572771
N     -0.866403    6.285819    4.513509
C     -2.495687    5.974826    1.404919
C     -3.095462    5.369281    0.296676
C     -3.125185    3.978229    0.188153
O     -3.035915    1.093088    1.965094
H     -3.876637    0.211563   -0.963293
H     -5.245353   -1.267306   -2.299356
H     -5.629101   -3.477951   -3.384730
H     -4.895493   -5.790369   -3.826258
H     -2.743175   -6.618478   -2.896068
H     -1.337696   -5.130472   -1.522080
H     -0.965602   -2.940480   -0.451946
H     -1.492494   -0.639756    1.222452
H      0.369873   -1.161281   -0.887802
H      1.722954   -2.368113    0.582437
H      3.308402   -3.634134    1.994922
H      4.724152   -3.760274    4.006841
H      4.871649   -1.832572    5.557230
H      3.612201    0.236281    5.091372
H      2.032961    1.508998    3.658921
H      0.611627    1.655591    1.693728
H      1.588127   -1.067517   -2.924397
H      3.572285   -2.524706   -3.122675
H      5.750040   -1.789921   -2.191271
H      3.933987    1.844992   -0.755915
H     -0.476787    2.759398   -0.434383
H      0.182359    2.755137   -2.923371
H     -1.506018    3.169968    3.077186
H     -2.484639    7.059846    1.481442
H     -3.548361    5.990434   -0.475828
H     -3.643015    3.518336   -0.650708
