60

C     -2.100421   -2.462151   -1.483418
C     -3.001746   -2.966336   -2.426739
C     -3.591901   -2.113208   -3.355317
C     -3.283151   -0.754578   -3.334131
C     -2.379019   -0.245195   -2.390980
C     -1.773955   -1.092796   -1.447077
C     -0.752463   -0.633653   -0.415552
C      0.699575   -0.947538   -0.899915
C      1.354220   -2.031387   -0.056202
C      1.682714   -3.262317   -0.645466
C      2.275521   -4.271338    0.108948
C      2.545656   -4.068009    1.462394
C      2.228016   -2.850887    2.060106
C      1.637662   -1.835745    1.306661
N      1.407399    0.324452   -0.796683
C      2.719749    0.473702   -1.204154
C      3.482823    1.592998   -0.680552
C      4.547360    2.172416   -1.344511
O      5.087928    3.179166   -0.615435
C      4.395536    3.238590    0.553704
C      4.824944    4.266227    1.522790
C      3.411195    2.273563    0.570713
O      3.185587   -0.286100   -2.055322
C      0.470070    1.414614   -0.611280
C      0.083856    2.166932   -1.925693
O      0.627805    1.679492   -3.068237
O     -0.708779    3.100499   -1.955020
N     -0.751427    0.805857   -0.104033
C     -1.094183    1.156547    1.202119
C     -2.482290    0.944591    1.588132
C     -3.585268    0.915620    0.759555
O     -4.728490    0.769351    1.471576
C     -4.371843    0.688381    2.788523
C     -5.475295    0.550407    3.755074
C     -3.007815    0.802162    2.912148
O     -0.262918    1.614435    1.992009
H     -1.653231   -3.152074   -0.764500
H     -3.245474   -4.024441   -2.438190
H     -4.301290   -2.512208   -4.083517
H     -3.748174   -0.082324   -4.053017
H     -2.184890    0.825989   -2.396928
H     -0.982130   -1.173381    0.517464
H      0.714827   -1.236639   -1.959332
H      1.495364   -3.441795   -1.703519
H      2.534663   -5.218619   -0.361441
H      3.013532   -4.856297    2.046672
H      2.446733   -2.687963    3.113579
H      1.408300   -0.888404    1.797037
H      5.012867    1.987152   -2.303626
H      5.914814    4.281477    1.614975
H      4.405259    4.065089    2.515633
H      4.489407    5.258545    1.203409
H      2.740003    2.080435    1.399404
H      0.876826    2.181869    0.049862
H      1.194640    0.890885   -2.973757
H     -3.717042    1.030266   -0.310866
H     -6.093786    1.454561    3.742907
H     -5.098256    0.410310    4.772476
H     -6.101500   -0.304537    3.498579
H     -2.438117    0.803339    3.837960
