
  xtb     03162222573D
 xtb: 6.3.3 (4ae9cef)
 60 64  0     0  0            999 V2000
   -1.8860   -2.0999   -2.3806 C   0  0  0  0  0  0  0  0  0  0  0  0
   -2.7057   -2.3216   -3.4715 C   0  0  0  0  0  0  0  0  0  0  0  0
   -3.4101   -1.2704   -4.0352 C   0  0  0  0  0  0  0  0  0  0  0  0
   -3.3001   -0.0023   -3.4933 C   0  0  0  0  0  0  0  0  0  0  0  0
   -2.4820    0.2224   -2.3983 C   0  0  0  0  0  0  0  0  0  0  0  0
   -1.7571   -0.8229   -1.8439 C   0  0  0  0  0  0  0  0  0  0  0  0
   -0.8570   -0.6285   -0.6431 C   0  0  0  0  0  0  0  0  0  0  0  0
    0.5996   -1.1150   -0.9099 C   0  0  0  0  0  0  0  0  0  0  0  0
    1.0876   -2.0459    0.1710 C   0  0  0  0  0  0  0  0  0  0  0  0
    1.4060   -3.3641   -0.1173 C   0  0  0  0  0  0  0  0  0  0  0  0
    1.8462   -4.2099    0.8854 C   0  0  0  0  0  0  0  0  0  0  0  0
    1.9717   -3.7439    2.1823 C   0  0  0  0  0  0  0  0  0  0  0  0
    1.6552   -2.4280    2.4756 C   0  0  0  0  0  0  0  0  0  0  0  0
    1.2139   -1.5823    1.4752 C   0  0  0  0  0  0  0  0  0  0  0  0
    1.3823    0.1193   -0.9179 N   0  0  0  0  0  0  0  0  0  0  0  0
    2.7488    0.0951   -0.9401 C   0  0  0  0  0  0  0  0  0  0  0  0
    3.4152    1.3784   -0.6429 C   0  0  0  0  0  0  0  0  0  0  0  0
    4.4355    1.9443   -1.3532 C   0  0  0  0  0  0  0  0  0  0  0  0
    4.8555    3.0693   -0.7626 O   0  0  0  0  0  0  0  0  0  0  0  0
    4.1276    3.2382    0.3634 C   0  0  0  0  0  0  0  0  0  0  0  0
    4.4092    4.4121    1.2283 C   0  0  0  0  0  0  0  0  0  0  0  0
    3.2226    2.2282    0.4876 C   0  0  0  0  0  0  0  0  0  0  0  0
    3.3529   -0.9240   -1.2080 O   0  0  0  0  0  0  0  0  0  0  0  0
    0.5139    1.2681   -0.8441 C   0  0  0  0  0  0  0  0  0  0  0  0
    0.2280    1.8799   -2.2417 C   0  0  0  0  0  0  0  0  0  0  0  0
    0.9102    1.3428   -3.2518 O   0  0  0  0  0  0  0  0  0  0  0  0
   -0.5380    2.7836   -2.3914 O   0  0  0  0  0  0  0  0  0  0  0  0
   -0.6971    0.7570   -0.2460 N   0  0  0  0  0  0  0  0  0  0  0  0
   -1.1094    1.3042    0.9460 C   0  0  0  0  0  0  0  0  0  0  0  0
   -2.2894    0.7003    1.5759 C   0  0  0  0  0  0  0  0  0  0  0  0
   -3.3613    0.0476    1.0269 C   0  0  0  0  0  0  0  0  0  0  0  0
   -4.2551   -0.2630    1.9723 O   0  0  0  0  0  0  0  0  0  0  0  0
   -3.7767    0.1818    3.1592 C   0  0  0  0  0  0  0  0  0  0  0  0
   -4.5881   -0.0488    4.3818 C   0  0  0  0  0  0  0  0  0  0  0  0
   -2.5746    0.7890    2.9717 C   0  0  0  0  0  0  0  0  0  0  0  0
   -0.5348    2.2617    1.4260 O   0  0  0  0  0  0  0  0  0  0  0  0
   -1.3483   -2.9236   -1.9328 H   0  0  0  0  0  0  0  0  0  0  0  0
   -2.7964   -3.3169   -3.8802 H   0  0  0  0  0  0  0  0  0  0  0  0
   -4.0472   -1.4425   -4.8896 H   0  0  0  0  0  0  0  0  0  0  0  0
   -3.8518    0.8212   -3.9198 H   0  0  0  0  0  0  0  0  0  0  0  0
   -2.4108    1.2133   -1.9777 H   0  0  0  0  0  0  0  0  0  0  0  0
   -1.2765   -1.1940    0.1974 H   0  0  0  0  0  0  0  0  0  0  0  0
    0.6728   -1.6146   -1.8837 H   0  0  0  0  0  0  0  0  0  0  0  0
    1.3236   -3.7254   -1.1319 H   0  0  0  0  0  0  0  0  0  0  0  0
    2.0989   -5.2331    0.6507 H   0  0  0  0  0  0  0  0  0  0  0  0
    2.3214   -4.4025    2.9633 H   0  0  0  0  0  0  0  0  0  0  0  0
    1.7560   -2.0575    3.4849 H   0  0  0  0  0  0  0  0  0  0  0  0
    0.9737   -0.5543    1.7089 H   0  0  0  0  0  0  0  0  0  0  0  0
    4.9054    1.6524   -2.2708 H   0  0  0  0  0  0  0  0  0  0  0  0
    5.3822    4.3078    1.7078 H   0  0  0  0  0  0  0  0  0  0  0  0
    3.6434    4.4940    1.9932 H   0  0  0  0  0  0  0  0  0  0  0  0
    4.4237    5.3228    0.6325 H   0  0  0  0  0  0  0  0  0  0  0  0
    2.5333    2.0899    1.2957 H   0  0  0  0  0  0  0  0  0  0  0  0
    0.8980    2.0780   -0.2094 H   0  0  0  0  0  0  0  0  0  0  0  0
    1.4835    0.6132   -2.9614 H   0  0  0  0  0  0  0  0  0  0  0  0
   -3.6093   -0.2045    0.0147 H   0  0  0  0  0  0  0  0  0  0  0  0
   -5.5908    0.3543    4.2500 H   0  0  0  0  0  0  0  0  0  0  0  0
   -4.1154    0.4355    5.2303 H   0  0  0  0  0  0  0  0  0  0  0  0
   -4.6792   -1.1155    4.5842 H   0  0  0  0  0  0  0  0  0  0  0  0
   -1.9498    1.2493    3.7078 H   0  0  0  0  0  0  0  0  0  0  0  0
  1  2  4  0  0  0  0
  2  3  4  0  0  0  0
  3  4  4  0  0  0  0
  4  5  4  0  0  0  0
  1  6  4  0  0  0  0
  5  6  4  0  0  0  0
  6  7  1  0  0  0  0
  7  8  1  0  0  0  0
  8  9  1  0  0  0  0
  9 10  4  0  0  0  0
 10 11  4  0  0  0  0
 11 12  4  0  0  0  0
 12 13  4  0  0  0  0
  9 14  4  0  0  0  0
 13 14  4  0  0  0  0
  8 15  1  0  0  0  0
 15 16  1  0  0  0  0
 16 17  1  0  0  0  0
 17 18  2  0  0  0  0
 18 19  1  0  0  0  0
 19 20  1  0  0  0  0
 20 21  1  0  0  0  0
 17 22  4  0  0  0  0
 20 22  2  0  0  0  0
 16 23  2  0  0  0  0
 15 24  1  0  0  0  0
 24 25  1  0  0  0  0
 25 26  1  0  0  0  0
 25 27  2  0  0  0  0
  7 28  1  0  0  0  0
 24 28  1  0  0  0  0
 28 29  1  0  0  0  0
 29 30  1  0  0  0  0
 30 31  2  0  0  0  0
 31 32  1  0  0  0  0
 32 33  1  0  0  0  0
 33 34  1  0  0  0  0
 30 35  4  0  0  0  0
 33 35  2  0  0  0  0
 29 36  2  0  0  0  0
  1 37  1  0  0  0  0
  2 38  1  0  0  0  0
  3 39  1  0  0  0  0
  4 40  1  0  0  0  0
  5 41  1  0  0  0  0
  7 42  1  0  0  0  0
  8 43  1  0  0  0  0
 10 44  1  0  0  0  0
 11 45  1  0  0  0  0
 12 46  1  0  0  0  0
 13 47  1  0  0  0  0
 14 48  1  0  0  0  0
 18 49  1  0  0  0  0
 21 50  1  0  0  0  0
 21 51  1  0  0  0  0
 21 52  1  0  0  0  0
 22 53  1  0  0  0  0
 24 54  1  0  0  0  0
 26 55  1  0  0  0  0
 31 56  1  0  0  0  0
 34 57  1  0  0  0  0
 34 58  1  0  0  0  0
 34 59  1  0  0  0  0
 35 60  1  0  0  0  0
M  END
