54

C     -2.137691    1.675963    1.233207
C     -3.223536    2.364872    1.780756
C     -4.165630    2.964462    0.944923
C     -4.022949    2.875733   -0.438834
C     -2.935310    2.191202   -0.987728
C     -1.973034    1.587517   -0.160750
C     -0.804396    0.839287   -0.792659
C      0.570007    1.314372   -0.219222
C      1.505662    1.838616   -1.306254
C      1.060888    2.886592   -2.134319
C      1.879966    3.422990   -3.130559
C      3.171883    2.937902   -3.303498
C      3.641452    1.928026   -2.477592
C      2.818253    1.390652   -1.483490
N      1.047657    0.146440    0.533832
C      1.932327    0.284133    1.583628
C      2.237407   -0.900974    2.367312
C      3.479515   -1.499967    2.396602
Cl     4.892134   -1.046977    1.523028
S      3.557908   -2.858323    3.410900
C      1.945829   -2.644237    3.875997
Cl     1.226834   -3.722460    4.997872
C      1.343364   -1.566897    3.278917
O      2.428477    1.363082    1.886792
C      0.358966   -1.062933    0.106625
C      1.201661   -1.903493   -0.903792
O      2.532908   -1.751369   -0.786459
O      0.766773   -2.737478   -1.683087
N     -0.874882   -0.590759   -0.495067
C     -1.907884   -1.376536   -0.982781
C     -2.059774   -2.714734   -0.419975
C     -2.280798   -3.849419   -1.176287
Cl    -2.385114   -3.990401   -2.891065
S     -2.416071   -5.271889   -0.255319
C     -2.242020   -4.398243    1.179330
Cl    -2.273997   -5.208358    2.693234
C     -2.086738   -3.050568    0.982415
O     -2.693987   -0.958688   -1.826592
H     -1.422704    1.213607    1.911417
H     -3.338132    2.431522    2.860419
H     -5.016484    3.493322    1.369521
H     -4.767611    3.329138   -1.092465
H     -2.859218    2.111656   -2.072883
H     -0.851234    0.941981   -1.883192
H      0.455235    2.142539    0.492525
H      0.068372    3.309586   -2.004782
H      1.513493    4.225227   -3.762394
H      3.814927    3.357401   -4.071482
H      4.659007    1.563453   -2.591722
H      3.243487    0.629306   -0.842284
H      0.323304   -1.260623    3.477762
H      0.149216   -1.706450    0.958535
H      2.916124   -2.354200   -1.460947
H     -2.003844   -2.334603    1.791931
