
  xtb     03162221293D
 xtb: 6.3.3 (4ae9cef)
 54 58  0     0  0            999 V2000
   -2.2309    1.6225    1.2633 C   0  0  0  0  0  0  0  0  0  0  0  0
   -3.2825    2.2954    1.8570 C   0  0  0  0  0  0  0  0  0  0  0  0
   -4.1523    3.0438    1.0816 C   0  0  0  0  0  0  0  0  0  0  0  0
   -3.9669    3.1149   -0.2880 C   0  0  0  0  0  0  0  0  0  0  0  0
   -2.9153    2.4401   -0.8831 C   0  0  0  0  0  0  0  0  0  0  0  0
   -2.0402    1.6911   -0.1114 C   0  0  0  0  0  0  0  0  0  0  0  0
   -0.8923    0.9501   -0.7472 C   0  0  0  0  0  0  0  0  0  0  0  0
    0.4911    1.4125   -0.2241 C   0  0  0  0  0  0  0  0  0  0  0  0
    1.4444    1.7776   -1.3403 C   0  0  0  0  0  0  0  0  0  0  0  0
    1.0622    2.7574   -2.2493 C   0  0  0  0  0  0  0  0  0  0  0  0
    1.9033    3.1181   -3.2852 C   0  0  0  0  0  0  0  0  0  0  0  0
    3.1385    2.5072   -3.4223 C   0  0  0  0  0  0  0  0  0  0  0  0
    3.5309    1.5444   -2.5105 C   0  0  0  0  0  0  0  0  0  0  0  0
    2.6896    1.1830   -1.4722 C   0  0  0  0  0  0  0  0  0  0  0  0
    0.9489    0.2877    0.5749 N   0  0  0  0  0  0  0  0  0  0  0  0
    1.7205    0.4423    1.6797 C   0  0  0  0  0  0  0  0  0  0  0  0
    2.0181   -0.8510    2.3815 C   0  0  0  0  0  0  0  0  0  0  0  0
    3.1933   -1.5266    2.2501 C   0  0  0  0  0  0  0  0  0  0  0  0
    4.5212   -1.0663    1.2908 Cl  0  0  0  0  0  0  0  0  0  0  0  0
    3.2224   -2.9993    3.1731 S   0  0  0  0  0  0  0  0  0  0  0  0
    1.6165   -2.6723    3.7486 C   0  0  0  0  0  0  0  0  0  0  0  0
    0.8315   -3.7494    4.8104 Cl  0  0  0  0  0  0  0  0  0  0  0  0
    1.1122   -1.5114    3.2521 C   0  0  0  0  0  0  0  0  0  0  0  0
    2.1311    1.5154    2.0498 O   0  0  0  0  0  0  0  0  0  0  0  0
    0.3236   -0.9230    0.1197 C   0  0  0  0  0  0  0  0  0  0  0  0
    1.1453   -1.5857   -1.0132 C   0  0  0  0  0  0  0  0  0  0  0  0
    2.0792   -2.3861   -0.5087 O   0  0  0  0  0  0  0  0  0  0  0  0
    0.9552   -1.4104   -2.1803 O   0  0  0  0  0  0  0  0  0  0  0  0
   -0.9426   -0.4652   -0.3869 N   0  0  0  0  0  0  0  0  0  0  0  0
   -1.9511   -1.2724   -0.8021 C   0  0  0  0  0  0  0  0  0  0  0  0
   -1.7571   -2.6953   -0.3639 C   0  0  0  0  0  0  0  0  0  0  0  0
   -1.4897   -3.7268   -1.2134 C   0  0  0  0  0  0  0  0  0  0  0  0
   -1.3171   -3.6283   -2.9024 Cl  0  0  0  0  0  0  0  0  0  0  0  0
   -1.2802   -5.2378   -0.3742 S   0  0  0  0  0  0  0  0  0  0  0  0
   -1.5814   -4.4419    1.1424 C   0  0  0  0  0  0  0  0  0  0  0  0
   -1.5547   -5.3099    2.6080 Cl  0  0  0  0  0  0  0  0  0  0  0  0
   -1.8159   -3.1119    0.9927 C   0  0  0  0  0  0  0  0  0  0  0  0
   -2.9110   -0.8786   -1.4172 O   0  0  0  0  0  0  0  0  0  0  0  0
   -1.5516    1.0397    1.8699 H   0  0  0  0  0  0  0  0  0  0  0  0
   -3.4248    2.2358    2.9260 H   0  0  0  0  0  0  0  0  0  0  0  0
   -4.9751    3.5673    1.5451 H   0  0  0  0  0  0  0  0  0  0  0  0
   -4.6463    3.6928   -0.8964 H   0  0  0  0  0  0  0  0  0  0  0  0
   -2.7802    2.4843   -1.9534 H   0  0  0  0  0  0  0  0  0  0  0  0
   -0.9482    1.0416   -1.8379 H   0  0  0  0  0  0  0  0  0  0  0  0
    0.3899    2.2767    0.4441 H   0  0  0  0  0  0  0  0  0  0  0  0
    0.1035    3.2429   -2.1369 H   0  0  0  0  0  0  0  0  0  0  0  0
    1.5952    3.8795   -3.9861 H   0  0  0  0  0  0  0  0  0  0  0  0
    3.7949    2.7861   -4.2327 H   0  0  0  0  0  0  0  0  0  0  0  0
    4.4974    1.0716   -2.6028 H   0  0  0  0  0  0  0  0  0  0  0  0
    3.0184    0.4433   -0.7572 H   0  0  0  0  0  0  0  0  0  0  0  0
    0.1438   -1.1245    3.5113 H   0  0  0  0  0  0  0  0  0  0  0  0
    0.2214   -1.6506    0.9326 H   0  0  0  0  0  0  0  0  0  0  0  0
    2.6166   -2.7884   -1.2121 H   0  0  0  0  0  0  0  0  0  0  0  0
   -2.0529   -2.4521    1.8070 H   0  0  0  0  0  0  0  0  0  0  0  0
  1  2  4  0  0  0  0
  2  3  4  0  0  0  0
  3  4  4  0  0  0  0
  4  5  4  0  0  0  0
  1  6  4  0  0  0  0
  5  6  4  0  0  0  0
  6  7  1  0  0  0  0
  7  8  1  0  0  0  0
  8  9  1  0  0  0  0
  9 10  4  0  0  0  0
 10 11  4  0  0  0  0
 11 12  4  0  0  0  0
 12 13  4  0  0  0  0
  9 14  4  0  0  0  0
 13 14  4  0  0  0  0
  8 15  1  0  0  0  0
 15 16  4  0  0  0  0
 16 17  1  0  0  0  0
 17 18  2  0  0  0  0
 18 19  1  0  0  0  0
 18 20  1  0  0  0  0
 20 21  1  0  0  0  0
 21 22  1  0  0  0  0
 17 23  4  0  0  0  0
 21 23  2  0  0  0  0
 16 24  2  0  0  0  0
 15 25  1  0  0  0  0
 25 26  1  0  0  0  0
 26 27  1  0  0  0  0
 26 28  2  0  0  0  0
  7 29  1  0  0  0  0
 25 29  1  0  0  0  0
 29 30  4  0  0  0  0
 30 31  1  0  0  0  0
 31 32  2  0  0  0  0
 32 33  1  0  0  0  0
 32 34  1  0  0  0  0
 34 35  1  0  0  0  0
 35 36  1  0  0  0  0
 31 37  4  0  0  0  0
 35 37  2  0  0  0  0
 30 38  2  0  0  0  0
  1 39  1  0  0  0  0
  2 40  1  0  0  0  0
  3 41  1  0  0  0  0
  4 42  1  0  0  0  0
  5 43  1  0  0  0  0
  7 44  1  0  0  0  0
  8 45  1  0  0  0  0
 10 46  1  0  0  0  0
 11 47  1  0  0  0  0
 12 48  1  0  0  0  0
 13 49  1  0  0  0  0
 14 50  1  0  0  0  0
 23 51  1  0  0  0  0
 25 52  1  0  0  0  0
 27 53  1  0  0  0  0
 37 54  1  0  0  0  0
M  END
