
  xtb     03172201133D
 xtb: 6.3.3 (4ae9cef)
 68 72  0     0  0            999 V2000
   -1.9219   -3.3239   -0.8500 C   0  0  0  0  0  0  0  0  0  0  0  0
   -2.5928   -2.8722   -2.1172 C   0  0  0  0  0  0  0  0  0  0  0  0
   -3.3724   -1.7815   -1.9232 F   0  0  0  0  0  0  0  0  0  0  0  0
   -1.7372   -2.5314   -3.0960 F   0  0  0  0  0  0  0  0  0  0  0  0
   -3.4002   -3.8004   -2.6434 F   0  0  0  0  0  0  0  0  0  0  0  0
   -2.1957   -4.6007   -0.3754 C   0  0  0  0  0  0  0  0  0  0  0  0
   -1.6242   -5.0449    0.8013 C   0  0  0  0  0  0  0  0  0  0  0  0
   -0.7825   -4.2090    1.5133 C   0  0  0  0  0  0  0  0  0  0  0  0
   -0.5113   -2.9386    1.0438 C   0  0  0  0  0  0  0  0  0  0  0  0
   -1.0656   -2.4782   -0.1448 C   0  0  0  0  0  0  0  0  0  0  0  0
   -0.7468   -1.0751   -0.5955 C   0  0  0  0  0  0  0  0  0  0  0  0
   -1.3650   -0.0102    0.3353 C   0  0  0  0  0  0  0  0  0  0  0  0
   -2.6262    0.5761   -0.2470 C   0  0  0  0  0  0  0  0  0  0  0  0
   -3.8925    0.3451    0.2882 C   0  0  0  0  0  0  0  0  0  0  0  0
   -4.0755   -0.5365    1.4917 C   0  0  0  0  0  0  0  0  0  0  0  0
   -5.3568   -0.6759    1.8506 F   0  0  0  0  0  0  0  0  0  0  0  0
   -3.4302   -0.1046    2.5884 F   0  0  0  0  0  0  0  0  0  0  0  0
   -3.6193   -1.7940    1.2769 F   0  0  0  0  0  0  0  0  0  0  0  0
   -5.0180    0.9036   -0.3052 C   0  0  0  0  0  0  0  0  0  0  0  0
   -4.8931    1.6908   -1.4335 C   0  0  0  0  0  0  0  0  0  0  0  0
   -3.6419    1.9139   -1.9807 C   0  0  0  0  0  0  0  0  0  0  0  0
   -2.5233    1.3574   -1.3926 C   0  0  0  0  0  0  0  0  0  0  0  0
   -0.3205    1.0050    0.4222 N   0  0  0  0  0  0  0  0  0  0  0  0
   -0.5672    2.2401    0.9355 C   0  0  0  0  0  0  0  0  0  0  0  0
    0.5923    3.1909    0.8756 C   0  0  0  0  0  0  0  0  0  0  0  0
    1.3977    3.4129    1.9979 C   0  0  0  0  0  0  0  0  0  0  0  0
    1.2355    2.6048    3.1455 C   0  0  0  0  0  0  0  0  0  0  0  0
    1.1575    1.8938    4.0419 N   0  0  0  0  0  0  0  0  0  0  0  0
    2.4153    4.3651    1.9560 C   0  0  0  0  0  0  0  0  0  0  0  0
    2.6256    5.0904    0.7995 C   0  0  0  0  0  0  0  0  0  0  0  0
    1.8323    4.8696   -0.3159 C   0  0  0  0  0  0  0  0  0  0  0  0
    0.8167    3.9284   -0.2771 C   0  0  0  0  0  0  0  0  0  0  0  0
   -1.6527    2.5671    1.3558 O   0  0  0  0  0  0  0  0  0  0  0  0
    0.9719    0.4945    0.0440 C   0  0  0  0  0  0  0  0  0  0  0  0
    1.9002    0.3763    1.2767 C   0  0  0  0  0  0  0  0  0  0  0  0
    1.3813   -0.4087    2.2037 O   0  0  0  0  0  0  0  0  0  0  0  0
    2.9468    0.9558    1.3729 O   0  0  0  0  0  0  0  0  0  0  0  0
    0.6854   -0.7971   -0.5283 N   0  0  0  0  0  0  0  0  0  0  0  0
    1.5979   -1.6717   -1.0260 C   0  0  0  0  0  0  0  0  0  0  0  0
    3.0290   -1.2471   -0.8883 C   0  0  0  0  0  0  0  0  0  0  0  0
    3.8596   -1.9512   -0.0298 C   0  0  0  0  0  0  0  0  0  0  0  0
    5.1975   -1.6125    0.0837 C   0  0  0  0  0  0  0  0  0  0  0  0
    5.7245   -0.5813   -0.6778 C   0  0  0  0  0  0  0  0  0  0  0  0
    4.9180    0.1139   -1.5574 C   0  0  0  0  0  0  0  0  0  0  0  0
    3.5675   -0.2150   -1.6665 C   0  0  0  0  0  0  0  0  0  0  0  0
    2.7407    0.5113   -2.5544 C   0  0  0  0  0  0  0  0  0  0  0  0
    2.0675    1.1302   -3.2469 N   0  0  0  0  0  0  0  0  0  0  0  0
    1.2837   -2.7360   -1.5085 O   0  0  0  0  0  0  0  0  0  0  0  0
   -2.8593   -5.2445   -0.9311 H   0  0  0  0  0  0  0  0  0  0  0  0
   -1.8412   -6.0384    1.1609 H   0  0  0  0  0  0  0  0  0  0  0  0
   -0.3391   -4.5448    2.4384 H   0  0  0  0  0  0  0  0  0  0  0  0
    0.1430   -2.2881    1.6038 H   0  0  0  0  0  0  0  0  0  0  0  0
   -1.0758   -0.9060   -1.6260 H   0  0  0  0  0  0  0  0  0  0  0  0
   -1.5335   -0.4313    1.3314 H   0  0  0  0  0  0  0  0  0  0  0  0
   -5.9917    0.7177    0.1201 H   0  0  0  0  0  0  0  0  0  0  0  0
   -5.7718    2.1229   -1.8857 H   0  0  0  0  0  0  0  0  0  0  0  0
   -3.5363    2.5187   -2.8683 H   0  0  0  0  0  0  0  0  0  0  0  0
   -1.5486    1.5311   -1.8253 H   0  0  0  0  0  0  0  0  0  0  0  0
    3.0310    4.5197    2.8291 H   0  0  0  0  0  0  0  0  0  0  0  0
    3.4123    5.8285    0.7659 H   0  0  0  0  0  0  0  0  0  0  0  0
    2.0023    5.4334   -1.2202 H   0  0  0  0  0  0  0  0  0  0  0  0
    0.1911    3.7658   -1.1421 H   0  0  0  0  0  0  0  0  0  0  0  0
    1.4639    1.1747   -0.6710 H   0  0  0  0  0  0  0  0  0  0  0  0
    1.8785   -0.3663    3.0403 H   0  0  0  0  0  0  0  0  0  0  0  0
    3.4457   -2.7640    0.5484 H   0  0  0  0  0  0  0  0  0  0  0  0
    5.8315   -2.1586    0.7652 H   0  0  0  0  0  0  0  0  0  0  0  0
    6.7681   -0.3217   -0.5889 H   0  0  0  0  0  0  0  0  0  0  0  0
    5.3187    0.9121   -2.1641 H   0  0  0  0  0  0  0  0  0  0  0  0
  1  2  1  0  0  0  0
  2  3  1  0  0  0  0
  2  4  1  0  0  0  0
  2  5  1  0  0  0  0
  1  6  4  0  0  0  0
  6  7  4  0  0  0  0
  7  8  4  0  0  0  0
  8  9  4  0  0  0  0
  1 10  4  0  0  0  0
  9 10  4  0  0  0  0
 10 11  1  0  0  0  0
 11 12  1  0  0  0  0
 12 13  1  0  0  0  0
 13 14  4  0  0  0  0
 14 15  1  0  0  0  0
 15 16  1  0  0  0  0
 15 17  1  0  0  0  0
 15 18  1  0  0  0  0
 14 19  4  0  0  0  0
 19 20  4  0  0  0  0
 20 21  4  0  0  0  0
 13 22  4  0  0  0  0
 21 22  4  0  0  0  0
 12 23  1  0  0  0  0
 23 24  1  0  0  0  0
 24 25  1  0  0  0  0
 25 26  4  0  0  0  0
 26 27  1  0  0  0  0
 27 28  3  0  0  0  0
 26 29  4  0  0  0  0
 29 30  4  0  0  0  0
 30 31  4  0  0  0  0
 25 32  4  0  0  0  0
 31 32  4  0  0  0  0
 24 33  2  0  0  0  0
 23 34  1  0  0  0  0
 34 35  1  0  0  0  0
 35 36  1  0  0  0  0
 35 37  2  0  0  0  0
 11 38  1  0  0  0  0
 34 38  1  0  0  0  0
 38 39  4  0  0  0  0
 39 40  1  0  0  0  0
 40 41  4  0  0  0  0
 41 42  4  0  0  0  0
 42 43  4  0  0  0  0
 43 44  4  0  0  0  0
 40 45  4  0  0  0  0
 44 45  4  0  0  0  0
 45 46  1  0  0  0  0
 46 47  3  0  0  0  0
 39 48  2  0  0  0  0
  6 49  1  0  0  0  0
  7 50  1  0  0  0  0
  8 51  1  0  0  0  0
  9 52  1  0  0  0  0
 11 53  1  0  0  0  0
 12 54  1  0  0  0  0
 19 55  1  0  0  0  0
 20 56  1  0  0  0  0
 21 57  1  0  0  0  0
 22 58  1  0  0  0  0
 29 59  1  0  0  0  0
 30 60  1  0  0  0  0
 31 61  1  0  0  0  0
 32 62  1  0  0  0  0
 34 63  1  0  0  0  0
 36 64  1  0  0  0  0
 41 65  1  0  0  0  0
 42 66  1  0  0  0  0
 43 67  1  0  0  0  0
 44 68  1  0  0  0  0
M  END
