60

C     -2.405083   -1.065641   -1.618131
C     -3.522461   -1.829361   -1.961152
C     -4.057632   -2.733660   -1.048110
C     -3.474486   -2.877667    0.207644
C     -2.356350   -2.115884    0.551043
C     -1.808156   -1.193451   -0.355018
C     -0.589563   -0.385971    0.044204
C      0.678671   -0.753041   -0.768158
C      1.399561   -2.061968   -0.518636
C      1.393339   -2.714932    0.722253
C      2.063280   -3.928820    0.898362
C      2.751597   -4.509996   -0.162792
C      2.776193   -3.875174   -1.400359
C      2.107552   -2.662033   -1.575663
N      1.485632    0.477241   -0.704220
C      2.397538    0.655946    0.340043
C      3.369382    1.769848    0.192556
C      4.269215    1.899583   -0.872645
I      4.528287    0.462231   -2.373597
C      5.112967    3.018097   -0.928028
C      5.073092    3.987584    0.076705
C      4.202096    3.842116    1.152636
C      3.357475    2.734513    1.214833
O      2.373436    0.030517    1.394675
C      0.524484    1.579717   -0.810958
C      0.394876    2.049992   -2.283503
O     -0.834905    1.904602   -2.823216
O      1.302465    2.488323   -2.977797
N     -0.706968    1.065088   -0.212090
C     -1.573653    1.973412    0.361850
C     -2.659159    1.475705    1.226394
C     -2.312269    1.063566    2.522669
C     -3.295025    0.594262    3.393312
C     -4.624787    0.549921    2.978701
C     -4.977716    0.987138    1.699058
C     -3.998107    1.463047    0.819174
I     -4.638034    2.129225   -1.060575
O     -1.447473    3.187874    0.225504
H     -2.015768   -0.358413   -2.346341
H     -3.978238   -1.712577   -2.941074
H     -4.928464   -3.326094   -1.315669
H     -3.889454   -3.584849    0.921047
H     -1.918808   -2.248282    1.538449
H     -0.402575   -0.486057    1.119342
H      0.372823   -0.802979   -1.825671
H      0.896375   -2.276419    1.583182
H      2.057608   -4.412990    1.871368
H      3.276262   -5.450854   -0.021908
H      3.319100   -4.320432   -2.229776
H      2.142859   -2.184057   -2.552782
H      5.819223    3.144385   -1.746132
H      5.733545    4.850132    0.024213
H      4.180395    4.589217    1.942449
H      2.680554    2.625551    2.060399
H      0.845564    2.459220   -0.241036
H     -0.748628    2.290636   -3.719531
H     -1.278282    1.113483    2.856728
H     -3.026032    0.270118    4.395789
H     -5.393348    0.184851    3.656203
H     -6.024024    0.954461    1.403782
