
  xtb     03162221203D
 xtb: 6.3.3 (4ae9cef)
 60 64  0     0  0            999 V2000
   -2.1848   -0.5799   -1.4609 C   0  0  0  0  0  0  0  0  0  0  0  0
   -3.3450   -1.0394   -2.0572 C   0  0  0  0  0  0  0  0  0  0  0  0
   -4.0843   -2.0442   -1.4560 C   0  0  0  0  0  0  0  0  0  0  0  0
   -3.6543   -2.5962   -0.2616 C   0  0  0  0  0  0  0  0  0  0  0  0
   -2.4950   -2.1369    0.3376 C   0  0  0  0  0  0  0  0  0  0  0  0
   -1.7609   -1.1171   -0.2512 C   0  0  0  0  0  0  0  0  0  0  0  0
   -0.4976   -0.6139    0.3946 C   0  0  0  0  0  0  0  0  0  0  0  0
    0.7404   -0.8981   -0.4849 C   0  0  0  0  0  0  0  0  0  0  0  0
    1.5008   -2.1055   -0.0038 C   0  0  0  0  0  0  0  0  0  0  0  0
    2.2566   -2.0398    1.1596 C   0  0  0  0  0  0  0  0  0  0  0  0
    2.9413   -3.1528    1.6114 C   0  0  0  0  0  0  0  0  0  0  0  0
    2.8653   -4.3445    0.9109 C   0  0  0  0  0  0  0  0  0  0  0  0
    2.1032   -4.4180   -0.2422 C   0  0  0  0  0  0  0  0  0  0  0  0
    1.4241   -3.3028   -0.6993 C   0  0  0  0  0  0  0  0  0  0  0  0
    1.5346    0.3198   -0.3870 N   0  0  0  0  0  0  0  0  0  0  0  0
    2.7463    0.3860   -0.9965 C   0  0  0  0  0  0  0  0  0  0  0  0
    3.4788    1.6779   -0.8178 C   0  0  0  0  0  0  0  0  0  0  0  0
    3.6751    2.5461   -1.8798 C   0  0  0  0  0  0  0  0  0  0  0  0
    2.7889    2.1254   -3.7486 I   0  0  0  0  0  0  0  0  0  0  0  0
    4.4120    3.7050   -1.7281 C   0  0  0  0  0  0  0  0  0  0  0  0
    4.9738    3.9957   -0.4976 C   0  0  0  0  0  0  0  0  0  0  0  0
    4.7974    3.1339    0.5713 C   0  0  0  0  0  0  0  0  0  0  0  0
    4.0535    1.9793    0.4106 C   0  0  0  0  0  0  0  0  0  0  0  0
    3.2134   -0.5519   -1.6050 O   0  0  0  0  0  0  0  0  0  0  0  0
    0.8009    1.4122    0.1979 C   0  0  0  0  0  0  0  0  0  0  0  0
    0.5845    2.5861   -0.7886 C   0  0  0  0  0  0  0  0  0  0  0  0
   -0.2168    2.2275   -1.7864 O   0  0  0  0  0  0  0  0  0  0  0  0
    1.1673    3.6290   -0.7175 O   0  0  0  0  0  0  0  0  0  0  0  0
   -0.4713    0.8296    0.5634 N   0  0  0  0  0  0  0  0  0  0  0  0
   -1.4930    1.6825    0.7893 C   0  0  0  0  0  0  0  0  0  0  0  0
   -2.7912    1.0871    1.2096 C   0  0  0  0  0  0  0  0  0  0  0  0
   -2.8555    0.3155    2.3647 C   0  0  0  0  0  0  0  0  0  0  0  0
   -4.0628   -0.1954    2.8026 C   0  0  0  0  0  0  0  0  0  0  0  0
   -5.2198    0.0600    2.0857 C   0  0  0  0  0  0  0  0  0  0  0  0
   -5.1736    0.8450    0.9477 C   0  0  0  0  0  0  0  0  0  0  0  0
   -3.9648    1.3684    0.5241 C   0  0  0  0  0  0  0  0  0  0  0  0
   -3.9381    2.5714   -1.2027 I   0  0  0  0  0  0  0  0  0  0  0  0
   -1.3246    2.8852    0.6859 O   0  0  0  0  0  0  0  0  0  0  0  0
   -1.6153    0.2104   -1.9277 H   0  0  0  0  0  0  0  0  0  0  0  0
   -3.6724   -0.6080   -2.9909 H   0  0  0  0  0  0  0  0  0  0  0  0
   -4.9921   -2.3990   -1.9200 H   0  0  0  0  0  0  0  0  0  0  0  0
   -4.2225   -3.3855    0.2071 H   0  0  0  0  0  0  0  0  0  0  0  0
   -2.1601   -2.5693    1.2695 H   0  0  0  0  0  0  0  0  0  0  0  0
   -0.3632   -1.0979    1.3732 H   0  0  0  0  0  0  0  0  0  0  0  0
    0.4419   -1.0514   -1.5302 H   0  0  0  0  0  0  0  0  0  0  0  0
    2.3198   -1.1088    1.7065 H   0  0  0  0  0  0  0  0  0  0  0  0
    3.5373   -3.0893    2.5100 H   0  0  0  0  0  0  0  0  0  0  0  0
    3.4027   -5.2128    1.2618 H   0  0  0  0  0  0  0  0  0  0  0  0
    2.0433   -5.3447   -0.7929 H   0  0  0  0  0  0  0  0  0  0  0  0
    0.8380   -3.3573   -1.6046 H   0  0  0  0  0  0  0  0  0  0  0  0
    4.5436    4.3783   -2.5610 H   0  0  0  0  0  0  0  0  0  0  0  0
    5.5481    4.9013   -0.3763 H   0  0  0  0  0  0  0  0  0  0  0  0
    5.2373    3.3609    1.5303 H   0  0  0  0  0  0  0  0  0  0  0  0
    3.9224    1.2936    1.2356 H   0  0  0  0  0  0  0  0  0  0  0  0
    1.3150    1.8305    1.0806 H   0  0  0  0  0  0  0  0  0  0  0  0
   -0.3555    2.9660   -2.4023 H   0  0  0  0  0  0  0  0  0  0  0  0
   -1.9509    0.1303    2.9248 H   0  0  0  0  0  0  0  0  0  0  0  0
   -4.1009   -0.7915    3.7013 H   0  0  0  0  0  0  0  0  0  0  0  0
   -6.1647   -0.3436    2.4159 H   0  0  0  0  0  0  0  0  0  0  0  0
   -6.0762    1.0555    0.3949 H   0  0  0  0  0  0  0  0  0  0  0  0
  1  2  4  0  0  0  0
  2  3  4  0  0  0  0
  3  4  4  0  0  0  0
  4  5  4  0  0  0  0
  1  6  4  0  0  0  0
  5  6  4  0  0  0  0
  6  7  1  0  0  0  0
  7  8  1  0  0  0  0
  8  9  1  0  0  0  0
  9 10  4  0  0  0  0
 10 11  4  0  0  0  0
 11 12  4  0  0  0  0
 12 13  4  0  0  0  0
  9 14  4  0  0  0  0
 13 14  4  0  0  0  0
  8 15  1  0  0  0  0
 15 16  4  0  0  0  0
 16 17  1  0  0  0  0
 17 18  4  0  0  0  0
 18 19  1  0  0  0  0
 18 20  4  0  0  0  0
 20 21  4  0  0  0  0
 21 22  4  0  0  0  0
 17 23  4  0  0  0  0
 22 23  4  0  0  0  0
 16 24  2  0  0  0  0
 15 25  1  0  0  0  0
 25 26  1  0  0  0  0
 26 27  1  0  0  0  0
 26 28  2  0  0  0  0
  7 29  1  0  0  0  0
 25 29  1  0  0  0  0
 29 30  4  0  0  0  0
 30 31  1  0  0  0  0
 31 32  4  0  0  0  0
 32 33  4  0  0  0  0
 33 34  4  0  0  0  0
 34 35  4  0  0  0  0
 31 36  4  0  0  0  0
 35 36  4  0  0  0  0
 36 37  1  0  0  0  0
 30 38  2  0  0  0  0
  1 39  1  0  0  0  0
  2 40  1  0  0  0  0
  3 41  1  0  0  0  0
  4 42  1  0  0  0  0
  5 43  1  0  0  0  0
  7 44  1  0  0  0  0
  8 45  1  0  0  0  0
 10 46  1  0  0  0  0
 11 47  1  0  0  0  0
 12 48  1  0  0  0  0
 13 49  1  0  0  0  0
 14 50  1  0  0  0  0
 20 51  1  0  0  0  0
 21 52  1  0  0  0  0
 22 53  1  0  0  0  0
 23 54  1  0  0  0  0
 25 55  1  0  0  0  0
 27 56  1  0  0  0  0
 32 57  1  0  0  0  0
 33 58  1  0  0  0  0
 34 59  1  0  0  0  0
 35 60  1  0  0  0  0
M  END
