
  xtb     03162223233D
 xtb: 6.3.3 (4ae9cef)
 74 80  0     0  0            999 V2000
   -2.9736    1.1781    0.5620 C   0  0  0  0  0  0  0  0  0  0  0  0
   -2.8375    2.3994   -0.0298 O   0  0  0  0  0  0  0  0  0  0  0  0
   -3.9519    3.2595   -0.0659 C   0  0  0  0  0  0  0  0  0  0  0  0
   -4.1499    0.7065    1.1322 C   0  0  0  0  0  0  0  0  0  0  0  0
   -4.1899   -0.5523    1.7074 C   0  0  0  0  0  0  0  0  0  0  0  0
   -3.0629   -1.3515    1.7304 C   0  0  0  0  0  0  0  0  0  0  0  0
   -1.8904   -0.8928    1.1563 C   0  0  0  0  0  0  0  0  0  0  0  0
   -1.8370    0.3568    0.5593 C   0  0  0  0  0  0  0  0  0  0  0  0
   -0.5628    0.8323   -0.0921 C   0  0  0  0  0  0  0  0  0  0  0  0
    0.5710    1.0221    0.9384 C   0  0  0  0  0  0  0  0  0  0  0  0
    0.9446    2.4707    1.1167 C   0  0  0  0  0  0  0  0  0  0  0  0
    0.6317    3.1270    2.2936 C   0  0  0  0  0  0  0  0  0  0  0  0
    0.9535    4.4608    2.4757 C   0  0  0  0  0  0  0  0  0  0  0  0
    1.6060    5.1446    1.4688 C   0  0  0  0  0  0  0  0  0  0  0  0
    1.9274    4.5075    0.2820 C   0  0  0  0  0  0  0  0  0  0  0  0
    1.5952    3.1727    0.0913 C   0  0  0  0  0  0  0  0  0  0  0  0
    1.8558    2.4736   -1.0552 O   0  0  0  0  0  0  0  0  0  0  0  0
    2.5469    3.1189   -2.0962 C   0  0  0  0  0  0  0  0  0  0  0  0
    1.6763    0.2275    0.4228 N   0  0  0  0  0  0  0  0  0  0  0  0
    2.8564    0.1858    1.0844 C   0  0  0  0  0  0  0  0  0  0  0  0
    3.9114   -0.6162    0.3999 C   0  0  0  0  0  0  0  0  0  0  0  0
    4.6356   -0.1832   -0.6561 C   0  0  0  0  0  0  0  0  0  0  0  0
    5.8092   -1.3269   -1.2112 S   0  0  0  0  0  0  0  0  0  0  0  0
    5.3269   -2.4549    0.0228 C   0  0  0  0  0  0  0  0  0  0  0  0
    4.2965   -1.9292    0.8250 C   0  0  0  0  0  0  0  0  0  0  0  0
    3.7788   -2.7020    1.8649 C   0  0  0  0  0  0  0  0  0  0  0  0
    4.2882   -3.9628    2.0806 C   0  0  0  0  0  0  0  0  0  0  0  0
    5.3089   -4.4716    1.2765 C   0  0  0  0  0  0  0  0  0  0  0  0
    5.8380   -3.7251    0.2438 C   0  0  0  0  0  0  0  0  0  0  0  0
    3.0316    0.7494    2.1439 O   0  0  0  0  0  0  0  0  0  0  0  0
    1.3575   -0.4649   -0.7952 C   0  0  0  0  0  0  0  0  0  0  0  0
    1.5049   -1.9974   -0.6567 C   0  0  0  0  0  0  0  0  0  0  0  0
    2.4104   -2.4865   -1.4926 O   0  0  0  0  0  0  0  0  0  0  0  0
    0.9342   -2.6376    0.1841 O   0  0  0  0  0  0  0  0  0  0  0  0
   -0.0340   -0.1487   -1.0248 N   0  0  0  0  0  0  0  0  0  0  0  0
   -0.7394   -0.9729   -1.8278 C   0  0  0  0  0  0  0  0  0  0  0  0
   -2.1613   -0.6124   -2.0373 C   0  0  0  0  0  0  0  0  0  0  0  0
   -2.5983    0.5552   -2.5640 C   0  0  0  0  0  0  0  0  0  0  0  0
   -4.3197    0.6604   -2.6739 S   0  0  0  0  0  0  0  0  0  0  0  0
   -4.4904   -0.9280   -1.9798 C   0  0  0  0  0  0  0  0  0  0  0  0
   -3.2369   -1.5039   -1.7113 C   0  0  0  0  0  0  0  0  0  0  0  0
   -3.1784   -2.7828   -1.1590 C   0  0  0  0  0  0  0  0  0  0  0  0
   -4.3525   -3.4478   -0.8853 C   0  0  0  0  0  0  0  0  0  0  0  0
   -5.5892   -2.8586   -1.1467 C   0  0  0  0  0  0  0  0  0  0  0  0
   -5.6714   -1.5968   -1.6983 C   0  0  0  0  0  0  0  0  0  0  0  0
   -0.2059   -1.9414   -2.3452 O   0  0  0  0  0  0  0  0  0  0  0  0
   -3.6032    4.1667   -0.5566 H   0  0  0  0  0  0  0  0  0  0  0  0
   -4.3009    3.5058    0.9412 H   0  0  0  0  0  0  0  0  0  0  0  0
   -4.7726    2.8263   -0.6465 H   0  0  0  0  0  0  0  0  0  0  0  0
   -5.0435    1.3098    1.1257 H   0  0  0  0  0  0  0  0  0  0  0  0
   -5.1150   -0.9052    2.1376 H   0  0  0  0  0  0  0  0  0  0  0  0
   -3.0961   -2.3299    2.1828 H   0  0  0  0  0  0  0  0  0  0  0  0
   -1.0115   -1.5213    1.1454 H   0  0  0  0  0  0  0  0  0  0  0  0
   -0.7510    1.7769   -0.6128 H   0  0  0  0  0  0  0  0  0  0  0  0
    0.2743    0.6184    1.9147 H   0  0  0  0  0  0  0  0  0  0  0  0
    0.1351    2.5791    3.0800 H   0  0  0  0  0  0  0  0  0  0  0  0
    0.7046    4.9571    3.4007 H   0  0  0  0  0  0  0  0  0  0  0  0
    1.8738    6.1825    1.5991 H   0  0  0  0  0  0  0  0  0  0  0  0
    2.4390    5.0628   -0.4881 H   0  0  0  0  0  0  0  0  0  0  0  0
    1.9863    3.9760   -2.4833 H   0  0  0  0  0  0  0  0  0  0  0  0
    2.6514    2.3763   -2.8869 H   0  0  0  0  0  0  0  0  0  0  0  0
    3.5403    3.4507   -1.7768 H   0  0  0  0  0  0  0  0  0  0  0  0
    4.5608    0.7625   -1.1569 H   0  0  0  0  0  0  0  0  0  0  0  0
    2.9923   -2.3007    2.4849 H   0  0  0  0  0  0  0  0  0  0  0  0
    3.8959   -4.5683    2.8833 H   0  0  0  0  0  0  0  0  0  0  0  0
    5.6908   -5.4635    1.4658 H   0  0  0  0  0  0  0  0  0  0  0  0
    6.6269   -4.1126   -0.3818 H   0  0  0  0  0  0  0  0  0  0  0  0
    1.9787   -0.1335   -1.6422 H   0  0  0  0  0  0  0  0  0  0  0  0
    2.4482   -3.4541   -1.4298 H   0  0  0  0  0  0  0  0  0  0  0  0
   -2.0110    1.3833   -2.9097 H   0  0  0  0  0  0  0  0  0  0  0  0
   -2.2172   -3.2313   -0.9628 H   0  0  0  0  0  0  0  0  0  0  0  0
   -4.3195   -4.4392   -0.4594 H   0  0  0  0  0  0  0  0  0  0  0  0
   -6.4958   -3.3984   -0.9177 H   0  0  0  0  0  0  0  0  0  0  0  0
   -6.6246   -1.1370   -1.9085 H   0  0  0  0  0  0  0  0  0  0  0  0
  1  2  1  0  0  0  0
  2  3  1  0  0  0  0
  1  4  4  0  0  0  0
  4  5  4  0  0  0  0
  5  6  4  0  0  0  0
  6  7  4  0  0  0  0
  1  8  4  0  0  0  0
  7  8  4  0  0  0  0
  8  9  1  0  0  0  0
  9 10  1  0  0  0  0
 10 11  1  0  0  0  0
 11 12  4  0  0  0  0
 12 13  4  0  0  0  0
 13 14  4  0  0  0  0
 14 15  4  0  0  0  0
 11 16  4  0  0  0  0
 15 16  4  0  0  0  0
 16 17  1  0  0  0  0
 17 18  1  0  0  0  0
 10 19  1  0  0  0  0
 19 20  4  0  0  0  0
 20 21  1  0  0  0  0
 21 22  2  0  0  0  0
 22 23  1  0  0  0  0
 23 24  1  0  0  0  0
 21 25  1  0  0  0  0
 24 25  4  0  0  0  0
 25 26  4  0  0  0  0
 26 27  4  0  0  0  0
 27 28  4  0  0  0  0
 24 29  4  0  0  0  0
 28 29  4  0  0  0  0
 20 30  2  0  0  0  0
 19 31  1  0  0  0  0
 31 32  1  0  0  0  0
 32 33  1  0  0  0  0
 32 34  2  0  0  0  0
  9 35  1  0  0  0  0
 31 35  1  0  0  0  0
 35 36  4  0  0  0  0
 36 37  1  0  0  0  0
 37 38  2  0  0  0  0
 38 39  1  0  0  0  0
 39 40  1  0  0  0  0
 37 41  1  0  0  0  0
 40 41  4  0  0  0  0
 41 42  4  0  0  0  0
 42 43  4  0  0  0  0
 43 44  4  0  0  0  0
 40 45  4  0  0  0  0
 44 45  4  0  0  0  0
 36 46  2  0  0  0  0
  3 47  1  0  0  0  0
  3 48  1  0  0  0  0
  3 49  1  0  0  0  0
  4 50  1  0  0  0  0
  5 51  1  0  0  0  0
  6 52  1  0  0  0  0
  7 53  1  0  0  0  0
  9 54  1  0  0  0  0
 10 55  1  0  0  0  0
 12 56  1  0  0  0  0
 13 57  1  0  0  0  0
 14 58  1  0  0  0  0
 15 59  1  0  0  0  0
 18 60  1  0  0  0  0
 18 61  1  0  0  0  0
 18 62  1  0  0  0  0
 22 63  1  0  0  0  0
 26 64  1  0  0  0  0
 27 65  1  0  0  0  0
 28 66  1  0  0  0  0
 29 67  1  0  0  0  0
 31 68  1  0  0  0  0
 33 69  1  0  0  0  0
 38 70  1  0  0  0  0
 42 71  1  0  0  0  0
 43 72  1  0  0  0  0
 44 73  1  0  0  0  0
 45 74  1  0  0  0  0
M  END
