
  xtb     03172200053D
 xtb: 6.3.3 (4ae9cef)
 62 66  0     0  0            999 V2000
    0.9630   -2.7094    1.0681 C   0  0  0  0  0  0  0  0  0  0  0  0
   -0.0536   -2.9605    0.1943 O   0  0  0  0  0  0  0  0  0  0  0  0
   -0.6032   -4.2554    0.1545 C   0  0  0  0  0  0  0  0  0  0  0  0
    1.4912   -3.6386    1.9554 C   0  0  0  0  0  0  0  0  0  0  0  0
    2.5124   -3.2757    2.8177 C   0  0  0  0  0  0  0  0  0  0  0  0
    3.0142   -1.9885    2.8126 C   0  0  0  0  0  0  0  0  0  0  0  0
    2.4914   -1.0577    1.9312 C   0  0  0  0  0  0  0  0  0  0  0  0
    1.4806   -1.4064    1.0537 C   0  0  0  0  0  0  0  0  0  0  0  0
    0.8779   -0.4044    0.1074 C   0  0  0  0  0  0  0  0  0  0  0  0
   -0.2662    0.3831    0.7817 C   0  0  0  0  0  0  0  0  0  0  0  0
   -1.5773   -0.3320    0.6161 C   0  0  0  0  0  0  0  0  0  0  0  0
   -2.1157   -0.9992    1.7059 C   0  0  0  0  0  0  0  0  0  0  0  0
   -3.3039   -1.6992    1.6063 C   0  0  0  0  0  0  0  0  0  0  0  0
   -3.9664   -1.7356    0.3948 C   0  0  0  0  0  0  0  0  0  0  0  0
   -3.4383   -1.0936   -0.7118 C   0  0  0  0  0  0  0  0  0  0  0  0
   -2.2390   -0.3993   -0.6184 C   0  0  0  0  0  0  0  0  0  0  0  0
   -1.6588    0.2574   -1.6741 O   0  0  0  0  0  0  0  0  0  0  0  0
   -2.3516    0.2893   -2.9091 C   0  0  0  0  0  0  0  0  0  0  0  0
   -0.1554    1.6971    0.1720 N   0  0  0  0  0  0  0  0  0  0  0  0
   -1.0961    2.6358   -0.0987 C   0  0  0  0  0  0  0  0  0  0  0  0
   -2.4340    2.4233    0.4807 C   0  0  0  0  0  0  0  0  0  0  0  0
   -2.7900    2.0310    1.7377 C   0  0  0  0  0  0  0  0  0  0  0  0
   -4.1894    1.9426    1.8792 C   0  0  0  0  0  0  0  0  0  0  0  0
   -5.0172    1.3547    3.4673 Br  0  0  0  0  0  0  0  0  0  0  0  0
   -4.8758    2.2779    0.7526 C   0  0  0  0  0  0  0  0  0  0  0  0
   -3.8151    2.7326   -0.5130 S   0  0  0  0  0  0  0  0  0  0  0  0
   -0.8318    3.5981   -0.7957 O   0  0  0  0  0  0  0  0  0  0  0  0
    1.1968    1.9424   -0.2895 C   0  0  0  0  0  0  0  0  0  0  0  0
    1.2097    2.5429   -1.7277 C   0  0  0  0  0  0  0  0  0  0  0  0
    0.5062    1.8375   -2.6033 O   0  0  0  0  0  0  0  0  0  0  0  0
    1.9154    3.4563   -2.0327 O   0  0  0  0  0  0  0  0  0  0  0  0
    1.8161    0.6331   -0.2947 N   0  0  0  0  0  0  0  0  0  0  0  0
    2.9202    0.2614   -1.0100 C   0  0  0  0  0  0  0  0  0  0  0  0
    3.8645    1.3342   -1.3708 C   0  0  0  0  0  0  0  0  0  0  0  0
    4.5422    1.4145   -2.5524 C   0  0  0  0  0  0  0  0  0  0  0  0
    5.4154    2.5204   -2.5845 C   0  0  0  0  0  0  0  0  0  0  0  0
    6.4883    2.9401   -4.0740 Br  0  0  0  0  0  0  0  0  0  0  0  0
    5.4228    3.2460   -1.4343 C   0  0  0  0  0  0  0  0  0  0  0  0
    4.3356    2.5992   -0.2836 S   0  0  0  0  0  0  0  0  0  0  0  0
    3.1238   -0.8985   -1.3019 O   0  0  0  0  0  0  0  0  0  0  0  0
   -1.3813   -4.2186   -0.6064 H   0  0  0  0  0  0  0  0  0  0  0  0
   -1.0533   -4.5278    1.1142 H   0  0  0  0  0  0  0  0  0  0  0  0
    0.1453   -5.0019   -0.1271 H   0  0  0  0  0  0  0  0  0  0  0  0
    1.1171   -4.6495    1.9806 H   0  0  0  0  0  0  0  0  0  0  0  0
    2.9143   -4.0115    3.4978 H   0  0  0  0  0  0  0  0  0  0  0  0
    3.8085   -1.7084    3.4865 H   0  0  0  0  0  0  0  0  0  0  0  0
    2.8811   -0.0503    1.9146 H   0  0  0  0  0  0  0  0  0  0  0  0
    0.5086   -0.9436   -0.7745 H   0  0  0  0  0  0  0  0  0  0  0  0
   -0.0378    0.4703    1.8546 H   0  0  0  0  0  0  0  0  0  0  0  0
   -1.5919   -0.9646    2.6500 H   0  0  0  0  0  0  0  0  0  0  0  0
   -3.7105   -2.2016    2.4695 H   0  0  0  0  0  0  0  0  0  0  0  0
   -4.9006   -2.2676    0.3002 H   0  0  0  0  0  0  0  0  0  0  0  0
   -3.9693   -1.1451   -1.6481 H   0  0  0  0  0  0  0  0  0  0  0  0
   -1.7514    0.9053   -3.5763 H   0  0  0  0  0  0  0  0  0  0  0  0
   -3.3384    0.7448   -2.7935 H   0  0  0  0  0  0  0  0  0  0  0  0
   -2.4504   -0.7141   -3.3310 H   0  0  0  0  0  0  0  0  0  0  0  0
   -2.1007    1.8294    2.5360 H   0  0  0  0  0  0  0  0  0  0  0  0
   -5.9372    2.2832    0.6061 H   0  0  0  0  0  0  0  0  0  0  0  0
    1.7138    2.6454    0.3833 H   0  0  0  0  0  0  0  0  0  0  0  0
   -0.0830    1.1866   -2.1765 H   0  0  0  0  0  0  0  0  0  0  0  0
    4.4069    0.7247   -3.3651 H   0  0  0  0  0  0  0  0  0  0  0  0
    6.0015    4.1180   -1.2043 H   0  0  0  0  0  0  0  0  0  0  0  0
  1  2  1  0  0  0  0
  2  3  1  0  0  0  0
  1  4  4  0  0  0  0
  4  5  4  0  0  0  0
  5  6  4  0  0  0  0
  6  7  4  0  0  0  0
  1  8  4  0  0  0  0
  7  8  4  0  0  0  0
  8  9  1  0  0  0  0
  9 10  1  0  0  0  0
 10 11  1  0  0  0  0
 11 12  4  0  0  0  0
 12 13  4  0  0  0  0
 13 14  4  0  0  0  0
 14 15  4  0  0  0  0
 11 16  4  0  0  0  0
 15 16  4  0  0  0  0
 16 17  1  0  0  0  0
 17 18  1  0  0  0  0
 10 19  1  0  0  0  0
 19 20  4  0  0  0  0
 20 21  1  0  0  0  0
 21 22  2  0  0  0  0
 22 23  4  0  0  0  0
 23 24  1  0  0  0  0
 23 25  2  0  0  0  0
 21 26  1  0  0  0  0
 25 26  1  0  0  0  0
 20 27  2  0  0  0  0
 19 28  1  0  0  0  0
 28 29  1  0  0  0  0
 29 30  1  0  0  0  0
 29 31  2  0  0  0  0
  9 32  1  0  0  0  0
 28 32  1  0  0  0  0
 32 33  1  0  0  0  0
 33 34  1  0  0  0  0
 34 35  2  0  0  0  0
 35 36  4  0  0  0  0
 36 37  1  0  0  0  0
 36 38  2  0  0  0  0
 34 39  1  0  0  0  0
 38 39  1  0  0  0  0
 33 40  2  0  0  0  0
  3 41  1  0  0  0  0
  3 42  1  0  0  0  0
  3 43  1  0  0  0  0
  4 44  1  0  0  0  0
  5 45  1  0  0  0  0
  6 46  1  0  0  0  0
  7 47  1  0  0  0  0
  9 48  1  0  0  0  0
 10 49  1  0  0  0  0
 12 50  1  0  0  0  0
 13 51  1  0  0  0  0
 14 52  1  0  0  0  0
 15 53  1  0  0  0  0
 18 54  1  0  0  0  0
 18 55  1  0  0  0  0
 18 56  1  0  0  0  0
 22 57  1  0  0  0  0
 25 58  1  0  0  0  0
 28 59  1  0  0  0  0
 30 60  1  0  0  0  0
 35 61  1  0  0  0  0
 38 62  1  0  0  0  0
M  END
