72

C     -1.925235   -1.995735   -0.559317
C     -2.429439   -2.835036   -1.558026
C     -2.123652   -2.612003   -2.908523
C     -2.618566   -3.443004   -3.924307
C     -2.292946   -3.211865   -5.260279
C     -1.464436   -2.145325   -5.594686
C     -0.971395   -1.307542   -4.600153
C     -1.290955   -1.527919   -3.253254
C     -0.796346   -0.690190   -2.239571
C     -1.111890   -0.903021   -0.887104
C     -0.571915   -0.004139    0.208277
C      0.990894   -0.019237    0.269235
C      1.489211   -0.908780    1.395669
C      2.079652   -2.146470    1.083663
C      2.549887   -3.010272    2.087695
C      3.148007   -4.241829    1.775844
C      3.618195   -5.081400    2.786989
C      3.497069   -4.704046    4.120275
C      2.899431   -3.488279    4.445071
C      2.418784   -2.631574    3.440265
C      1.821361   -1.399102    3.750950
C      1.360515   -0.548670    2.741008
N      1.366337    1.387077    0.403786
C      2.688492    1.792448    0.411061
C      2.959522    3.237217    0.499623
C      2.686937    3.916423    1.691509
C      2.916340    5.290094    1.765928
C      3.397219    5.975580    0.653571
C      3.698591    5.279753   -0.522389
Br     4.385795    6.214192   -2.018115
C      3.485041    3.904380   -0.605889
O      3.651521    1.033385    0.357125
C      0.266575    2.253971    0.028508
C      0.373010    2.797405   -1.435774
O     -0.454312    3.849697   -1.689877
O      1.054404    2.281533   -2.306203
N     -0.917255    1.421171    0.060660
C     -2.136219    2.041512    0.184683
C     -3.376737    1.247655    0.234067
C     -4.078249    1.125690    1.436411
C     -5.299907    0.452501    1.435011
Br    -6.314813    0.316814    3.031760
C     -5.820436   -0.087169    0.254431
C     -5.129092    0.068807   -0.946134
C     -3.915809    0.758836   -0.961524
O     -2.222153    3.270206    0.207566
H     -2.187047   -2.202004    0.479472
H     -3.067104   -3.671412   -1.272435
H     -3.256754   -4.283674   -3.674776
H     -2.678598   -3.864659   -6.037563
H     -1.202700   -1.964616   -6.631150
H     -0.321869   -0.485061   -4.892278
H     -0.147760    0.139629   -2.518262
H     -1.010771   -0.312843    1.166618
H      1.429781   -0.355207   -0.679304
H      2.189923   -2.437687    0.039275
H      3.256969   -4.555400    0.740150
H      4.086171   -6.030436    2.534511
H      3.874668   -5.354109    4.902069
H      2.824836   -3.207936    5.491672
H      1.714840   -1.088479    4.788686
H      0.914352    0.406089    3.020844
H      2.328693    3.375647    2.563091
H      2.708108    5.823207    2.693058
H      3.566580    7.048450    0.725540
H      3.732883    3.349977   -1.512954
H      0.197447    3.095442    0.722788
H     -1.083932    4.030363   -0.950080
H     -3.695746    1.587058    2.347073
H     -6.778290   -0.599627    0.248616
H     -5.542733   -0.328445   -1.878563
H     -3.392980    0.911994   -1.905614
