72

C      2.317314   -2.067020    3.833184
C      1.605937   -1.129093    4.576496
C      0.833518   -0.184557    3.921834
C      0.780634   -0.174508    2.525164
C      1.498046   -1.101394    1.731620
C      2.272756   -2.067321    2.429947
C      3.005115   -3.031019    1.726720
C      2.980517   -3.073399    0.338948
C      2.232619   -2.138931   -0.364086
C      1.500676   -1.129484    0.301350
C      0.758255   -0.145873   -0.604746
C     -0.787973   -0.390661   -0.600609
C     -1.343662   -0.933039   -1.922704
C     -0.935897   -0.338356   -3.137828
C     -1.403784   -0.790065   -4.366351
C     -2.288156   -1.856155   -4.415979
C     -2.723384   -2.481713   -3.243140
C     -2.266099   -2.030600   -1.973557
C     -2.774213   -2.721069   -0.844499
C     -3.669912   -3.789809   -0.959238
C     -4.090426   -4.211988   -2.209447
C     -3.620550   -3.558342   -3.343459
N     -1.374349    0.920278   -0.240557
C     -2.516678    0.968381    0.549775
C     -2.866311    2.236580    1.214813
C     -3.432873    3.291338    0.494317
C     -3.734254    4.484387    1.152132
C     -3.482616    4.613247    2.520639
C     -2.939661    3.542440    3.232475
Br    -2.611866    3.715036    5.086897
C     -2.634779    2.346449    2.589024
O     -3.239466    0.002061    0.760295
C     -0.356592    1.972960   -0.289652
C     -0.540423    2.822313   -1.591787
O     -1.691465    2.549053   -2.267692
O      0.253442    3.644969   -2.024288
N      0.913792    1.278757   -0.281773
C      2.057644    1.989452    0.021393
C      3.376946    1.365640   -0.195343
C      3.756585    0.927889   -1.467710
C      5.006672    0.336185   -1.633147
Br     5.517848   -0.295795   -3.338486
C      5.881482    0.202200   -0.553110
C      5.503837    0.662566    0.709203
C      4.252828    1.251586    0.889041
O      2.019448    3.122963    0.489822
H      2.915557   -2.802571    4.366379
H      1.652401   -1.143340    5.662546
H      0.271020    0.549989    4.492173
H      0.160102    0.587178    2.073881
H      3.604037   -3.766404    2.258969
H      3.551061   -3.831285   -0.190688
H      2.239109   -2.195902   -1.452620
H      1.169690   -0.248932   -1.613505
H     -1.021084   -1.081916    0.211269
H     -0.240656    0.498213   -3.160065
H     -1.080000   -0.308816   -5.286160
H     -2.642264   -2.194381   -5.387913
H     -2.505730   -2.431975    0.167397
H     -4.040984   -4.281908   -0.063387
H     -4.786747   -5.040574   -2.304002
H     -3.966193   -3.897384   -4.317916
H     -3.658415    3.195217   -0.564118
H     -4.173775    5.314627    0.602271
H     -3.721565    5.548094    3.023293
H     -2.224367    1.506685    3.144145
H     -0.433694    2.651960    0.563650
H     -2.159588    1.779700   -1.875731
H      3.091739    1.063857   -2.314602
H      6.858726   -0.256145   -0.683729
H      6.182993    0.563026    1.551489
H      3.958105    1.616449    1.871075
