
  xtb     03172200283D
 xtb: 6.3.3 (4ae9cef)
 72 78  0     0  0            999 V2000
    2.4822   -1.7633    3.5424 C   0  0  0  0  0  0  0  0  0  0  0  0
    1.7317   -0.8565    4.2340 C   0  0  0  0  0  0  0  0  0  0  0  0
    0.8776    0.0097    3.5386 C   0  0  0  0  0  0  0  0  0  0  0  0
    0.7958   -0.0383    2.1748 C   0  0  0  0  0  0  0  0  0  0  0  0
    1.5678   -0.9502    1.4214 C   0  0  0  0  0  0  0  0  0  0  0  0
    2.4214   -1.8380    2.1351 C   0  0  0  0  0  0  0  0  0  0  0  0
    3.1968   -2.7835    1.4340 C   0  0  0  0  0  0  0  0  0  0  0  0
    3.1329   -2.8607    0.0733 C   0  0  0  0  0  0  0  0  0  0  0  0
    2.3149   -1.9739   -0.6356 C   0  0  0  0  0  0  0  0  0  0  0  0
    1.5563   -1.0217    0.0010 C   0  0  0  0  0  0  0  0  0  0  0  0
    0.7290   -0.1098   -0.8735 C   0  0  0  0  0  0  0  0  0  0  0  0
   -0.7930   -0.4324   -0.7733 C   0  0  0  0  0  0  0  0  0  0  0  0
   -1.3935   -0.9612   -2.0607 C   0  0  0  0  0  0  0  0  0  0  0  0
   -1.0131   -0.4199   -3.2664 C   0  0  0  0  0  0  0  0  0  0  0  0
   -1.5176   -0.8935   -4.4837 C   0  0  0  0  0  0  0  0  0  0  0  0
   -2.4006   -1.9328   -4.4953 C   0  0  0  0  0  0  0  0  0  0  0  0
   -2.8340   -2.5150   -3.2873 C   0  0  0  0  0  0  0  0  0  0  0  0
   -2.3493   -2.0189   -2.0429 C   0  0  0  0  0  0  0  0  0  0  0  0
   -2.8560   -2.6088   -0.8629 C   0  0  0  0  0  0  0  0  0  0  0  0
   -3.7548   -3.6384   -0.9133 C   0  0  0  0  0  0  0  0  0  0  0  0
   -4.2032   -4.1432   -2.1413 C   0  0  0  0  0  0  0  0  0  0  0  0
   -3.7547   -3.5841   -3.3029 C   0  0  0  0  0  0  0  0  0  0  0  0
   -1.4168    0.8323   -0.3456 N   0  0  0  0  0  0  0  0  0  0  0  0
   -2.2295    0.8162    0.7662 C   0  0  0  0  0  0  0  0  0  0  0  0
   -2.5431    2.1334    1.3938 C   0  0  0  0  0  0  0  0  0  0  0  0
   -2.9492    3.2669    0.6958 C   0  0  0  0  0  0  0  0  0  0  0  0
   -3.2370    4.4339    1.3834 C   0  0  0  0  0  0  0  0  0  0  0  0
   -3.1184    4.4907    2.7610 C   0  0  0  0  0  0  0  0  0  0  0  0
   -2.7296    3.3523    3.4479 C   0  0  0  0  0  0  0  0  0  0  0  0
   -2.5752    3.4030    5.3418 Br  0  0  0  0  0  0  0  0  0  0  0  0
   -2.4535    2.1736    2.7820 C   0  0  0  0  0  0  0  0  0  0  0  0
   -2.6712   -0.2196    1.2128 O   0  0  0  0  0  0  0  0  0  0  0  0
   -0.4998    1.9035   -0.6568 C   0  0  0  0  0  0  0  0  0  0  0  0
   -0.7508    2.4912   -2.0683 C   0  0  0  0  0  0  0  0  0  0  0  0
   -2.0052    2.3466   -2.5025 O   0  0  0  0  0  0  0  0  0  0  0  0
    0.0946    3.0569   -2.6900 O   0  0  0  0  0  0  0  0  0  0  0  0
    0.8153    1.3122   -0.5639 N   0  0  0  0  0  0  0  0  0  0  0  0
    1.8034    1.9940    0.0842 C   0  0  0  0  0  0  0  0  0  0  0  0
    3.1391    1.3367    0.1087 C   0  0  0  0  0  0  0  0  0  0  0  0
    3.7036    0.8271   -1.0527 C   0  0  0  0  0  0  0  0  0  0  0  0
    4.9405    0.2149   -0.9800 C   0  0  0  0  0  0  0  0  0  0  0  0
    5.6863   -0.5425   -2.5559 Br  0  0  0  0  0  0  0  0  0  0  0  0
    5.6318    0.1135    0.2150 C   0  0  0  0  0  0  0  0  0  0  0  0
    5.0762    0.6601    1.3588 C   0  0  0  0  0  0  0  0  0  0  0  0
    3.8391    1.2759    1.3085 C   0  0  0  0  0  0  0  0  0  0  0  0
    1.5923    3.0754    0.5939 O   0  0  0  0  0  0  0  0  0  0  0  0
    3.1386   -2.4454    4.0633 H   0  0  0  0  0  0  0  0  0  0  0  0
    1.7850   -0.8028    5.3108 H   0  0  0  0  0  0  0  0  0  0  0  0
    0.2841    0.7233    4.0906 H   0  0  0  0  0  0  0  0  0  0  0  0
    0.1250    0.6434    1.6814 H   0  0  0  0  0  0  0  0  0  0  0  0
    3.8372   -3.4470    1.9962 H   0  0  0  0  0  0  0  0  0  0  0  0
    3.7174   -3.5878   -0.4693 H   0  0  0  0  0  0  0  0  0  0  0  0
    2.2949   -2.0393   -1.7144 H   0  0  0  0  0  0  0  0  0  0  0  0
    1.0581   -0.2705   -1.9066 H   0  0  0  0  0  0  0  0  0  0  0  0
   -0.9529   -1.1581    0.0283 H   0  0  0  0  0  0  0  0  0  0  0  0
   -0.3022    0.3920   -3.3097 H   0  0  0  0  0  0  0  0  0  0  0  0
   -1.1892   -0.4323   -5.4022 H   0  0  0  0  0  0  0  0  0  0  0  0
   -2.7839   -2.3228   -5.4267 H   0  0  0  0  0  0  0  0  0  0  0  0
   -2.5710   -2.2314    0.1045 H   0  0  0  0  0  0  0  0  0  0  0  0
   -4.1289   -4.0658    0.0049 H   0  0  0  0  0  0  0  0  0  0  0  0
   -4.9073   -4.9616   -2.1599 H   0  0  0  0  0  0  0  0  0  0  0  0
   -4.1008   -3.9474   -4.2598 H   0  0  0  0  0  0  0  0  0  0  0  0
   -3.0662    3.2464   -0.3767 H   0  0  0  0  0  0  0  0  0  0  0  0
   -3.5533    5.3103    0.8396 H   0  0  0  0  0  0  0  0  0  0  0  0
   -3.3318    5.4031    3.2957 H   0  0  0  0  0  0  0  0  0  0  0  0
   -2.1709    1.2822    3.3212 H   0  0  0  0  0  0  0  0  0  0  0  0
   -0.5550    2.7454    0.0509 H   0  0  0  0  0  0  0  0  0  0  0  0
   -2.4996    1.7125   -1.9533 H   0  0  0  0  0  0  0  0  0  0  0  0
    3.1917    0.9171   -1.9982 H   0  0  0  0  0  0  0  0  0  0  0  0
    6.5916   -0.3785    0.2468 H   0  0  0  0  0  0  0  0  0  0  0  0
    5.6126    0.6001    2.2930 H   0  0  0  0  0  0  0  0  0  0  0  0
    3.3972    1.7012    2.1960 H   0  0  0  0  0  0  0  0  0  0  0  0
  1  2  2  0  0  0  0
  2  3  4  0  0  0  0
  3  4  2  0  0  0  0
  4  5  4  0  0  0  0
  1  6  4  0  0  0  0
  5  6  4  0  0  0  0
  6  7  4  0  0  0  0
  7  8  2  0  0  0  0
  8  9  4  0  0  0  0
  5 10  4  0  0  0  0
  9 10  2  0  0  0  0
 10 11  1  0  0  0  0
 11 12  1  0  0  0  0
 12 13  1  0  0  0  0
 13 14  2  0  0  0  0
 14 15  4  0  0  0  0
 15 16  2  0  0  0  0
 16 17  4  0  0  0  0
 13 18  4  0  0  0  0
 17 18  4  0  0  0  0
 18 19  4  0  0  0  0
 19 20  2  0  0  0  0
 20 21  4  0  0  0  0
 17 22  4  0  0  0  0
 21 22  2  0  0  0  0
 12 23  1  0  0  0  0
 23 24  1  0  0  0  0
 24 25  1  0  0  0  0
 25 26  4  0  0  0  0
 26 27  4  0  0  0  0
 27 28  4  0  0  0  0
 28 29  4  0  0  0  0
 29 30  1  0  0  0  0
 25 31  4  0  0  0  0
 29 31  4  0  0  0  0
 24 32  2  0  0  0  0
 23 33  1  0  0  0  0
 33 34  1  0  0  0  0
 34 35  1  0  0  0  0
 34 36  2  0  0  0  0
 11 37  1  0  0  0  0
 33 37  1  0  0  0  0
 37 38  1  0  0  0  0
 38 39  1  0  0  0  0
 39 40  4  0  0  0  0
 40 41  4  0  0  0  0
 41 42  1  0  0  0  0
 41 43  4  0  0  0  0
 43 44  4  0  0  0  0
 39 45  4  0  0  0  0
 44 45  4  0  0  0  0
 38 46  2  0  0  0  0
  1 47  1  0  0  0  0
  2 48  1  0  0  0  0
  3 49  1  0  0  0  0
  4 50  1  0  0  0  0
  7 51  1  0  0  0  0
  8 52  1  0  0  0  0
  9 53  1  0  0  0  0
 11 54  1  0  0  0  0
 12 55  1  0  0  0  0
 14 56  1  0  0  0  0
 15 57  1  0  0  0  0
 16 58  1  0  0  0  0
 19 59  1  0  0  0  0
 20 60  1  0  0  0  0
 21 61  1  0  0  0  0
 22 62  1  0  0  0  0
 26 63  1  0  0  0  0
 27 64  1  0  0  0  0
 28 65  1  0  0  0  0
 31 66  1  0  0  0  0
 33 67  1  0  0  0  0
 35 68  1  0  0  0  0
 40 69  1  0  0  0  0
 43 70  1  0  0  0  0
 44 71  1  0  0  0  0
 45 72  1  0  0  0  0
M  END
