
  xtb     03162222193D
 xtb: 6.3.3 (4ae9cef)
 60 64  0     0  0            999 V2000
   -1.7289   -0.4101    2.7006 O   0  0  0  0  0  0  0  0  0  0  0  0
   -1.2891    0.2390    1.7786 C   0  0  0  0  0  0  0  0  0  0  0  0
   -0.8561    1.6647    1.9044 C   0  0  0  0  0  0  0  0  0  0  0  0
   -1.3614    2.6726    1.0892 C   0  0  0  0  0  0  0  0  0  0  0  0
   -0.8611    3.9589    1.1817 C   0  0  0  0  0  0  0  0  0  0  0  0
    0.1470    4.2335    2.0905 C   0  0  0  0  0  0  0  0  0  0  0  0
    0.9795    6.1766    2.1635 I   0  0  0  0  0  0  0  0  0  0  0  0
    0.6277    3.2515    2.9395 C   0  0  0  0  0  0  0  0  0  0  0  0
    0.1167    1.9692    2.8506 C   0  0  0  0  0  0  0  0  0  0  0  0
   -1.1219   -0.2956    0.5324 N   0  0  0  0  0  0  0  0  0  0  0  0
   -0.3595    0.2744   -0.5389 C   0  0  0  0  0  0  0  0  0  0  0  0
   -1.2117    0.4913   -1.8068 C   0  0  0  0  0  0  0  0  0  0  0  0
   -2.4282    0.9386   -1.5119 O   0  0  0  0  0  0  0  0  0  0  0  0
   -0.8033    0.3353   -2.9210 O   0  0  0  0  0  0  0  0  0  0  0  0
    0.6796   -0.6988   -0.7836 N   0  0  0  0  0  0  0  0  0  0  0  0
    1.8771   -0.4644   -1.3816 C   0  0  0  0  0  0  0  0  0  0  0  0
    2.1161    0.9898   -1.6675 C   0  0  0  0  0  0  0  0  0  0  0  0
    2.4186    1.8494   -0.6151 C   0  0  0  0  0  0  0  0  0  0  0  0
    2.5977    3.2013   -0.8435 C   0  0  0  0  0  0  0  0  0  0  0  0
    2.4747    3.6888   -2.1329 C   0  0  0  0  0  0  0  0  0  0  0  0
    2.6811    5.7657   -2.4747 I   0  0  0  0  0  0  0  0  0  0  0  0
    2.2102    2.8421   -3.1942 C   0  0  0  0  0  0  0  0  0  0  0  0
    2.0352    1.4887   -2.9592 C   0  0  0  0  0  0  0  0  0  0  0  0
    2.6694   -1.3454   -1.6221 O   0  0  0  0  0  0  0  0  0  0  0  0
    0.3167   -1.9916   -0.2102 C   0  0  0  0  0  0  0  0  0  0  0  0
    1.2460   -2.3775    0.9155 C   0  0  0  0  0  0  0  0  0  0  0  0
    1.5680   -3.7123    1.1174 C   0  0  0  0  0  0  0  0  0  0  0  0
    2.3887   -4.0833    2.1671 C   0  0  0  0  0  0  0  0  0  0  0  0
    2.8965   -3.1233    3.0253 C   0  0  0  0  0  0  0  0  0  0  0  0
    2.5787   -1.7907    2.8300 C   0  0  0  0  0  0  0  0  0  0  0  0
    1.7558   -1.4203    1.7821 C   0  0  0  0  0  0  0  0  0  0  0  0
   -1.1128   -1.7441    0.3225 C   0  0  0  0  0  0  0  0  0  0  0  0
   -2.2546   -2.1150   -0.5941 C   0  0  0  0  0  0  0  0  0  0  0  0
   -2.1059   -2.3645   -1.9516 C   0  0  0  0  0  0  0  0  0  0  0  0
   -3.2159   -2.6388   -2.7350 C   0  0  0  0  0  0  0  0  0  0  0  0
   -4.4805   -2.6605   -2.1750 C   0  0  0  0  0  0  0  0  0  0  0  0
   -4.6361   -2.4071   -0.8216 C   0  0  0  0  0  0  0  0  0  0  0  0
   -3.5307   -2.1361   -0.0381 C   0  0  0  0  0  0  0  0  0  0  0  0
   -2.1470    2.4483    0.3837 H   0  0  0  0  0  0  0  0  0  0  0  0
   -1.2483    4.7373    0.5431 H   0  0  0  0  0  0  0  0  0  0  0  0
    1.3967    3.4795    3.6617 H   0  0  0  0  0  0  0  0  0  0  0  0
    0.4794    1.1926    3.5073 H   0  0  0  0  0  0  0  0  0  0  0  0
    0.0520    1.2573   -0.2732 H   0  0  0  0  0  0  0  0  0  0  0  0
   -2.9570    1.0637   -2.3176 H   0  0  0  0  0  0  0  0  0  0  0  0
    2.5227    1.4615    0.3887 H   0  0  0  0  0  0  0  0  0  0  0  0
    2.8277    3.8657   -0.0247 H   0  0  0  0  0  0  0  0  0  0  0  0
    2.1346    3.2300   -4.1981 H   0  0  0  0  0  0  0  0  0  0  0  0
    1.8158    0.8210   -3.7768 H   0  0  0  0  0  0  0  0  0  0  0  0
    0.3451   -2.7703   -0.9767 H   0  0  0  0  0  0  0  0  0  0  0  0
    1.1763   -4.4623    0.4459 H   0  0  0  0  0  0  0  0  0  0  0  0
    2.6361   -5.1241    2.3124 H   0  0  0  0  0  0  0  0  0  0  0  0
    3.5409   -3.4117    3.8421 H   0  0  0  0  0  0  0  0  0  0  0  0
    2.9741   -1.0368    3.4950 H   0  0  0  0  0  0  0  0  0  0  0  0
    1.5148   -0.3765    1.6358 H   0  0  0  0  0  0  0  0  0  0  0  0
   -1.2596   -2.2187    1.2984 H   0  0  0  0  0  0  0  0  0  0  0  0
   -1.1337   -2.3441   -2.4197 H   0  0  0  0  0  0  0  0  0  0  0  0
   -3.0857   -2.8332   -3.7891 H   0  0  0  0  0  0  0  0  0  0  0  0
   -5.3418   -2.8753   -2.7897 H   0  0  0  0  0  0  0  0  0  0  0  0
   -5.6196   -2.4227   -0.3765 H   0  0  0  0  0  0  0  0  0  0  0  0
   -3.6468   -1.9330    1.0162 H   0  0  0  0  0  0  0  0  0  0  0  0
  1  2  2  0  0  0  0
  2  3  1  0  0  0  0
  3  4  4  0  0  0  0
  4  5  4  0  0  0  0
  5  6  4  0  0  0  0
  6  7  1  0  0  0  0
  6  8  4  0  0  0  0
  3  9  4  0  0  0  0
  8  9  4  0  0  0  0
  2 10  1  0  0  0  0
 10 11  1  0  0  0  0
 11 12  1  0  0  0  0
 12 13  1  0  0  0  0
 12 14  2  0  0  0  0
 11 15  1  0  0  0  0
 15 16  4  0  0  0  0
 16 17  1  0  0  0  0
 17 18  4  0  0  0  0
 18 19  4  0  0  0  0
 19 20  4  0  0  0  0
 20 21  1  0  0  0  0
 20 22  4  0  0  0  0
 17 23  4  0  0  0  0
 22 23  4  0  0  0  0
 16 24  2  0  0  0  0
 15 25  1  0  0  0  0
 25 26  1  0  0  0  0
 26 27  4  0  0  0  0
 27 28  4  0  0  0  0
 28 29  4  0  0  0  0
 29 30  4  0  0  0  0
 26 31  4  0  0  0  0
 30 31  4  0  0  0  0
 10 32  1  0  0  0  0
 25 32  1  0  0  0  0
 32 33  1  0  0  0  0
 33 34  4  0  0  0  0
 34 35  4  0  0  0  0
 35 36  4  0  0  0  0
 36 37  4  0  0  0  0
 33 38  4  0  0  0  0
 37 38  4  0  0  0  0
  4 39  1  0  0  0  0
  5 40  1  0  0  0  0
  8 41  1  0  0  0  0
  9 42  1  0  0  0  0
 11 43  1  0  0  0  0
 13 44  1  0  0  0  0
 18 45  1  0  0  0  0
 19 46  1  0  0  0  0
 22 47  1  0  0  0  0
 23 48  1  0  0  0  0
 25 49  1  0  0  0  0
 27 50  1  0  0  0  0
 28 51  1  0  0  0  0
 29 52  1  0  0  0  0
 30 53  1  0  0  0  0
 31 54  1  0  0  0  0
 32 55  1  0  0  0  0
 34 56  1  0  0  0  0
 35 57  1  0  0  0  0
 36 58  1  0  0  0  0
 37 59  1  0  0  0  0
 38 60  1  0  0  0  0
M  END
