
  xtb     03162221173D
 xtb: 6.3.3 (4ae9cef)
 68 72  0     0  0            999 V2000
    0.6994   -1.9840    3.0544 C   0  0  0  0  0  0  0  0  0  0  0  0
    0.0178   -2.9774    2.4243 O   0  0  0  0  0  0  0  0  0  0  0  0
   -0.5385   -4.0135    3.1939 C   0  0  0  0  0  0  0  0  0  0  0  0
    0.9197   -1.9130    4.4234 C   0  0  0  0  0  0  0  0  0  0  0  0
    1.6652   -0.8719    4.9542 C   0  0  0  0  0  0  0  0  0  0  0  0
    2.2070    0.0932    4.1292 C   0  0  0  0  0  0  0  0  0  0  0  0
    1.9820    0.0307    2.7622 C   0  0  0  0  0  0  0  0  0  0  0  0
    1.2168   -0.9817    2.2167 C   0  0  0  0  0  0  0  0  0  0  0  0
    0.9176   -1.0907    0.7443 C   0  0  0  0  0  0  0  0  0  0  0  0
   -0.5978   -0.9442    0.4377 C   0  0  0  0  0  0  0  0  0  0  0  0
   -1.1773   -2.1260   -0.2900 C   0  0  0  0  0  0  0  0  0  0  0  0
   -0.6281   -2.5416   -1.4908 C   0  0  0  0  0  0  0  0  0  0  0  0
   -1.1641   -3.6092   -2.1892 C   0  0  0  0  0  0  0  0  0  0  0  0
   -2.2684   -4.2637   -1.6788 C   0  0  0  0  0  0  0  0  0  0  0  0
   -2.8354   -3.8590   -0.4825 C   0  0  0  0  0  0  0  0  0  0  0  0
   -2.3003   -2.7879    0.2244 C   0  0  0  0  0  0  0  0  0  0  0  0
   -2.7906   -2.3337    1.4092 O   0  0  0  0  0  0  0  0  0  0  0  0
   -4.0247   -2.8338    1.8597 C   0  0  0  0  0  0  0  0  0  0  0  0
   -0.6596    0.2509   -0.4019 N   0  0  0  0  0  0  0  0  0  0  0  0
   -1.8061    0.7014   -0.9682 C   0  0  0  0  0  0  0  0  0  0  0  0
   -1.6240    1.9598   -1.7553 C   0  0  0  0  0  0  0  0  0  0  0  0
   -0.9534    2.0427   -2.9353 C   0  0  0  0  0  0  0  0  0  0  0  0
   -0.9404    3.6456   -3.5598 S   0  0  0  0  0  0  0  0  0  0  0  0
   -1.8621    4.2246   -2.2078 C   0  0  0  0  0  0  0  0  0  0  0  0
   -2.2362    5.6593   -2.1057 C   0  0  0  0  0  0  0  0  0  0  0  0
   -2.1486    3.2135   -1.3467 C   0  0  0  0  0  0  0  0  0  0  0  0
   -2.8730    0.1405   -0.8546 O   0  0  0  0  0  0  0  0  0  0  0  0
    0.5871    0.9671   -0.3450 C   0  0  0  0  0  0  0  0  0  0  0  0
    0.5762    2.0332    0.7741 C   0  0  0  0  0  0  0  0  0  0  0  0
   -0.3998    1.8411    1.6486 O   0  0  0  0  0  0  0  0  0  0  0  0
    1.3589    2.9421    0.8371 O   0  0  0  0  0  0  0  0  0  0  0  0
    1.5562   -0.0568   -0.0568 N   0  0  0  0  0  0  0  0  0  0  0  0
    2.6183   -0.3947   -0.8581 C   0  0  0  0  0  0  0  0  0  0  0  0
    3.0362    0.6097   -1.8600 C   0  0  0  0  0  0  0  0  0  0  0  0
    3.4164    0.2240   -3.1126 C   0  0  0  0  0  0  0  0  0  0  0  0
    3.8415    1.5533   -4.1042 S   0  0  0  0  0  0  0  0  0  0  0  0
    3.5424    2.6696   -2.8051 C   0  0  0  0  0  0  0  0  0  0  0  0
    3.7324    4.1298   -3.0015 C   0  0  0  0  0  0  0  0  0  0  0  0
    3.1240    2.0206   -1.6891 C   0  0  0  0  0  0  0  0  0  0  0  0
    3.1709   -1.4691   -0.7425 O   0  0  0  0  0  0  0  0  0  0  0  0
   -1.2931   -3.6346    3.8904 H   0  0  0  0  0  0  0  0  0  0  0  0
    0.2295   -4.5625    3.7485 H   0  0  0  0  0  0  0  0  0  0  0  0
   -1.0116   -4.6834    2.4775 H   0  0  0  0  0  0  0  0  0  0  0  0
    0.5227   -2.6666    5.0848 H   0  0  0  0  0  0  0  0  0  0  0  0
    1.8293   -0.8297    6.0207 H   0  0  0  0  0  0  0  0  0  0  0  0
    2.8060    0.8911    4.5404 H   0  0  0  0  0  0  0  0  0  0  0  0
    2.4236    0.7727    2.1141 H   0  0  0  0  0  0  0  0  0  0  0  0
    1.2869   -2.0627    0.3950 H   0  0  0  0  0  0  0  0  0  0  0  0
   -1.1685   -0.7759    1.3557 H   0  0  0  0  0  0  0  0  0  0  0  0
    0.2318   -2.0194   -1.8867 H   0  0  0  0  0  0  0  0  0  0  0  0
   -0.7249   -3.9226   -3.1237 H   0  0  0  0  0  0  0  0  0  0  0  0
   -2.7010   -5.0967   -2.2132 H   0  0  0  0  0  0  0  0  0  0  0  0
   -3.7017   -4.3843   -0.1120 H   0  0  0  0  0  0  0  0  0  0  0  0
   -3.9620   -3.8958    2.1231 H   0  0  0  0  0  0  0  0  0  0  0  0
   -4.8105   -2.6877    1.1129 H   0  0  0  0  0  0  0  0  0  0  0  0
   -4.2675   -2.2585    2.7524 H   0  0  0  0  0  0  0  0  0  0  0  0
   -0.4785    1.2565   -3.4887 H   0  0  0  0  0  0  0  0  0  0  0  0
   -2.7979    5.9729   -2.9848 H   0  0  0  0  0  0  0  0  0  0  0  0
   -1.3465    6.2850   -2.0376 H   0  0  0  0  0  0  0  0  0  0  0  0
   -2.8481    5.8211   -1.2217 H   0  0  0  0  0  0  0  0  0  0  0  0
   -2.7202    3.3402   -0.4449 H   0  0  0  0  0  0  0  0  0  0  0  0
    0.8203    1.4790   -1.2850 H   0  0  0  0  0  0  0  0  0  0  0  0
   -0.3726    2.5046    2.3574 H   0  0  0  0  0  0  0  0  0  0  0  0
    3.4502   -0.7737   -3.5016 H   0  0  0  0  0  0  0  0  0  0  0  0
    4.7475    4.3460   -3.3320 H   0  0  0  0  0  0  0  0  0  0  0  0
    3.0460    4.5057   -3.7604 H   0  0  0  0  0  0  0  0  0  0  0  0
    3.5443    4.6528   -2.0671 H   0  0  0  0  0  0  0  0  0  0  0  0
    2.9089    2.5257   -0.7655 H   0  0  0  0  0  0  0  0  0  0  0  0
  1  2  1  0  0  0  0
  2  3  1  0  0  0  0
  1  4  4  0  0  0  0
  4  5  4  0  0  0  0
  5  6  4  0  0  0  0
  6  7  4  0  0  0  0
  1  8  4  0  0  0  0
  7  8  4  0  0  0  0
  8  9  1  0  0  0  0
  9 10  1  0  0  0  0
 10 11  1  0  0  0  0
 11 12  4  0  0  0  0
 12 13  4  0  0  0  0
 13 14  4  0  0  0  0
 14 15  4  0  0  0  0
 11 16  4  0  0  0  0
 15 16  4  0  0  0  0
 16 17  1  0  0  0  0
 17 18  1  0  0  0  0
 10 19  1  0  0  0  0
 19 20  4  0  0  0  0
 20 21  1  0  0  0  0
 21 22  2  0  0  0  0
 22 23  1  0  0  0  0
 23 24  1  0  0  0  0
 24 25  1  0  0  0  0
 21 26  4  0  0  0  0
 24 26  2  0  0  0  0
 20 27  2  0  0  0  0
 19 28  1  0  0  0  0
 28 29  1  0  0  0  0
 29 30  1  0  0  0  0
 29 31  2  0  0  0  0
  9 32  1  0  0  0  0
 28 32  1  0  0  0  0
 32 33  1  0  0  0  0
 33 34  1  0  0  0  0
 34 35  2  0  0  0  0
 35 36  1  0  0  0  0
 36 37  1  0  0  0  0
 37 38  1  0  0  0  0
 34 39  4  0  0  0  0
 37 39  2  0  0  0  0
 33 40  2  0  0  0  0
  3 41  1  0  0  0  0
  3 42  1  0  0  0  0
  3 43  1  0  0  0  0
  4 44  1  0  0  0  0
  5 45  1  0  0  0  0
  6 46  1  0  0  0  0
  7 47  1  0  0  0  0
  9 48  1  0  0  0  0
 10 49  1  0  0  0  0
 12 50  1  0  0  0  0
 13 51  1  0  0  0  0
 14 52  1  0  0  0  0
 15 53  1  0  0  0  0
 18 54  1  0  0  0  0
 18 55  1  0  0  0  0
 18 56  1  0  0  0  0
 22 57  1  0  0  0  0
 25 58  1  0  0  0  0
 25 59  1  0  0  0  0
 25 60  1  0  0  0  0
 26 61  1  0  0  0  0
 28 62  1  0  0  0  0
 30 63  1  0  0  0  0
 35 64  1  0  0  0  0
 38 65  1  0  0  0  0
 38 66  1  0  0  0  0
 38 67  1  0  0  0  0
 39 68  1  0  0  0  0
M  END
