72

C     -1.710950   -3.985965   -1.163151
C     -2.123259   -4.345705    0.253834
F     -2.636706   -5.604196    0.366186
F     -1.066136   -4.312679    1.114392
F     -3.059981   -3.519220    0.781645
C     -2.088489   -4.867726   -2.199433
C     -1.675091   -4.657809   -3.512784
C     -0.859148   -3.574795   -3.812165
C     -0.483160   -2.682373   -2.805359
C     -0.930643   -2.838647   -1.476662
C     -0.562000   -1.803050   -0.416018
C      0.973365   -1.641977   -0.172671
C      1.393353   -2.262680    1.161679
C      2.265756   -3.377215    1.232245
C      2.810170   -4.057626   -0.006045
F      3.592576   -3.252380   -0.773238
F      3.562586   -5.163489    0.256576
F      1.804877   -4.488807   -0.824080
C      2.625992   -3.886251    2.496256
C      2.135031   -3.319558    3.671014
C      1.267466   -2.237307    3.605220
C      0.902655   -1.712612    2.365725
N      1.190862   -0.192058   -0.194052
C      2.437948    0.363652    0.040587
C      2.529934    1.825103    0.255553
C      1.791766    2.435447    1.275300
C      1.874092    3.816385    1.459618
C      2.710617    4.587902    0.642608
C      2.799130    6.075850    0.817823
C      3.472971    3.959959   -0.351979
C      3.391412    2.579610   -0.540809
O      3.464017   -0.304933    0.127270
C      0.058712    0.513744   -0.759312
C      0.308076    0.943892   -2.244842
O     -0.630344    0.490191   -3.119530
O      1.237535    1.638682   -2.627877
N     -1.052501   -0.438862   -0.727337
C     -2.369284   -0.113728   -0.411912
C     -2.729859    1.293722   -0.141226
C     -2.648255    2.290002   -1.117446
C     -2.956021    3.609176   -0.780038
C     -3.370889    3.937241    0.519401
C     -3.740188    5.350694    0.864913
C     -3.500908    2.920261    1.472979
C     -3.179247    1.603943    1.146955
O     -3.243895   -0.961823   -0.282407
H     -2.702225   -5.743680   -1.981523
H     -1.973075   -5.354184   -4.294111
H     -0.503784   -3.427709   -4.831325
H      0.186794   -1.872293   -3.086860
H     -1.060704   -2.066720    0.521337
H      1.559983   -2.041882   -1.002647
H      3.301912   -4.736807    2.572239
H      2.425574   -3.727986    4.635873
H      0.876973   -1.799883    4.519205
H      0.225118   -0.861505    2.348262
H      1.163616    1.841879    1.934032
H      1.278402    4.285200    2.238562
H      2.427731    6.581126   -0.077933
H      3.837564    6.374133    0.994760
H      2.204388    6.415738    1.671707
H      4.126196    4.547781   -0.994431
H      3.979651    2.099613   -1.318842
H     -0.171728    1.409150   -0.182968
H     -1.271455   -0.113276   -2.682343
H     -2.364611    2.065282   -2.141375
H     -2.883830    4.384432   -1.542705
H     -3.151804    6.064040    0.277737
H     -3.539235    5.559708    1.921584
H     -4.802371    5.520138    0.664434
H     -3.866691    3.146403    2.473459
H     -3.286330    0.819315    1.896466
