60

C      1.535163   -1.038953    2.487691
C      2.384447   -1.086029    3.596358
C      3.647917   -1.659636    3.485933
C      4.065033   -2.184087    2.266389
C      3.214887   -2.141893    1.159521
C      1.931379   -1.576541    1.251574
C      1.039128   -1.544963    0.005979
C     -0.454741   -1.869937    0.329424
C     -1.120956   -2.830596   -0.661053
C     -2.462447   -2.685903   -1.049809
C     -3.071589   -3.591679   -1.923253
C     -2.358318   -4.682358   -2.406917
C     -1.043640   -4.877777   -1.999263
C     -0.437702   -3.971136   -1.123834
N     -1.057395   -0.523091    0.369248
C     -2.050383   -0.203046    1.274693
C     -2.468114    1.206507    1.412699
C     -3.727808    1.654841    1.002553
Br    -5.024363    0.521258    0.207619
C     -4.072851    2.998743    1.184235
C     -3.177700    3.881633    1.793230
C     -1.938463    3.425597    2.238313
C     -1.586803    2.087866    2.060247
O     -2.563151   -1.021872    2.031446
C     -0.312266    0.388379   -0.498121
C     -0.995261    0.555239   -1.889810
O     -2.329416    0.355724   -1.888883
O     -0.465146    0.946432   -2.918572
N      1.014869   -0.204280   -0.590015
C      2.152539    0.342359   -1.158477
C      2.185395    1.791950   -1.445580
C      2.066734    2.673905   -0.358616
C      2.122329    4.052341   -0.563387
C      2.318614    4.554556   -1.848251
C      2.475841    3.680506   -2.926714
C      2.423706    2.295964   -2.729398
Br     2.672581    1.188187   -4.251640
O      3.171490   -0.307617   -1.376256
H      0.556035   -0.587556    2.615875
H      2.056761   -0.677567    4.548842
H      4.309038   -1.694828    4.347676
H      5.055896   -2.620746    2.170123
H      3.573545   -2.535839    0.209206
H      1.467541   -2.220664   -0.740818
H     -0.566876   -2.348994    1.310383
H     -3.068241   -1.870786   -0.664413
H     -4.110461   -3.449064   -2.209844
H     -2.832791   -5.390106   -3.081006
H     -0.489894   -5.744846   -2.350620
H      0.576946   -4.190590   -0.798023
H     -5.045715    3.367400    0.865281
H     -3.458436    4.922896    1.937648
H     -1.255096    4.109101    2.737327
H     -0.631343    1.731890    2.438680
H     -0.251382    1.382657   -0.058929
H     -2.592843    0.478401   -2.825414
H      1.957748    2.286400    0.652120
H      2.031032    4.734360    0.278631
H      2.368571    5.628865   -2.011653
H      2.646424    4.089023   -3.920377
