23

C     -3.996612    0.357846    0.296924
O     -3.001976   -0.354677    1.021059
C     -1.743166   -0.372682    0.486141
C     -0.802141   -1.085903    1.231737
C      0.523124   -1.185341    0.801476
C      0.927206   -0.572872   -0.390774
C      2.361837   -0.663700   -0.854120
C      3.292027    0.423094   -0.381190
C      3.008192    1.462403    0.416326
C     -0.018080    0.148224   -1.132728
C     -1.345163    0.246065   -0.698685
H     -4.937022    0.274259    0.850197
H     -3.746574    1.421505    0.224760
H     -4.153735   -0.080351   -0.694243
H     -1.103537   -1.566876    2.158978
H      1.238141   -1.739283    1.405243
H      2.774436   -1.632123   -0.542810
H      2.377715   -0.679049   -1.951658
H      4.314802    0.331094   -0.744049
H      3.777082    2.180486    0.684620
H      2.015417    1.628239    0.823518
H      0.276637    0.644741   -2.054870
H     -2.038608    0.814901   -1.308401
