74

C     -3.519144   -1.706270    0.293912
O     -3.154083   -2.608531    1.262877
C     -3.769218   -2.274082    2.508576
C     -4.812607   -1.755689   -0.232555
C     -5.194240   -0.852344   -1.218163
C     -4.278677    0.083548   -1.689672
C     -2.976606    0.112086   -1.181397
C     -2.569898   -0.784470   -0.181421
C     -1.153199   -0.781479    0.372922
C     -0.095182   -1.317664   -0.640361
C      0.277796   -2.761169   -0.353290
C      0.873640   -3.137073    0.866890
C      1.178764   -4.476268    1.133348
C      0.902681   -5.461580    0.185205
C      0.313391   -5.109940   -1.029179
C      0.023364   -3.766810   -1.299568
O     -0.559530   -3.425042   -2.495307
C      0.354387   -3.611699   -3.577389
N      1.020926   -0.370456   -0.506873
C      2.221500   -0.526003   -1.174378
C      3.308287    0.431178   -0.844250
C      3.861575    1.303158   -1.795990
C      3.412397    1.366969   -3.229356
C      4.872656    2.186804   -1.378117
C      5.340980    2.176155   -0.062178
C      4.817901    1.275868    0.859599
C      3.805782    0.399498    0.469536
O      2.470948   -1.431557   -1.963600
C      0.529074    0.903549    0.001168
C      0.128330    1.923599   -1.109186
O      0.377933    1.516616   -2.370620
O     -0.403823    3.011187   -0.942808
N     -0.662915    0.554260    0.755698
C     -1.165493    1.202364    1.867758
C     -0.576254    2.493998    2.274655
C      0.680542    2.496552    2.900661
C      1.247240    3.700248    3.316033
C      0.547553    4.893797    3.136196
C     -0.719830    4.885512    2.546762
C     -1.302240    3.685483    2.114705
C     -2.687396    3.689252    1.529673
O     -2.089875    0.767938    2.547202
H     -3.843204   -1.193666    2.667227
H     -3.153719   -2.695557    3.309107
H     -4.762378   -2.732156    2.572210
H     -5.519383   -2.499087    0.122125
H     -6.201531   -0.883141   -1.624180
H     -4.568018    0.791238   -2.456963
H     -2.290322    0.843258   -1.596335
H     -1.128188   -1.355067    1.304997
H     -0.448404   -1.201130   -1.671105
H      1.092047   -2.388341    1.628797
H      1.630718   -4.753167    2.083017
H      1.140976   -6.502073    0.399060
H      0.083697   -5.879008   -1.764097
H      0.176961   -2.816368   -4.308356
H      1.404565   -3.563438   -3.272723
H      0.158158   -4.575622   -4.057367
H      2.832157    2.280387   -3.388805
H      2.802035    0.511798   -3.530649
H      4.279140    1.383779   -3.894900
H      5.313150    2.883335   -2.087432
H      6.127649    2.865360    0.237916
H      5.205235    1.251731    1.876118
H      3.409830   -0.316041    1.185474
H      1.288562    1.377790    0.620664
H      0.065852    2.256421   -2.935529
H      1.209988    1.563985    3.072335
H      2.224729    3.705418    3.793149
H      0.979596    5.834319    3.469600
H     -1.257236    5.825440    2.435444
H     -2.702454    3.166294    0.568552
H     -3.045057    4.708768    1.354575
H     -3.382591    3.203044    2.220358
