
  xtb     03162223203D
 xtb: 6.3.3 (4ae9cef)
 74 78  0     0  0            999 V2000
   -3.3202   -1.6841   -0.2524 C   0  0  0  0  0  0  0  0  0  0  0  0
   -2.7022   -2.7880    0.2478 O   0  0  0  0  0  0  0  0  0  0  0  0
   -3.3412   -4.0344    0.1326 C   0  0  0  0  0  0  0  0  0  0  0  0
   -4.5699   -1.6789   -0.8569 C   0  0  0  0  0  0  0  0  0  0  0  0
   -5.1146   -0.4904   -1.3170 C   0  0  0  0  0  0  0  0  0  0  0  0
   -4.4253    0.6972   -1.1758 C   0  0  0  0  0  0  0  0  0  0  0  0
   -3.1748    0.6955   -0.5770 C   0  0  0  0  0  0  0  0  0  0  0  0
   -2.6109   -0.4793   -0.1195 C   0  0  0  0  0  0  0  0  0  0  0  0
   -1.2509   -0.5449    0.5256 C   0  0  0  0  0  0  0  0  0  0  0  0
   -0.1901   -1.1616   -0.4236 C   0  0  0  0  0  0  0  0  0  0  0  0
    0.2632   -2.5266    0.0116 C   0  0  0  0  0  0  0  0  0  0  0  0
    0.8984   -2.6975    1.2288 C   0  0  0  0  0  0  0  0  0  0  0  0
    1.3271   -3.9468    1.6413 C   0  0  0  0  0  0  0  0  0  0  0  0
    1.1135   -5.0383    0.8224 C   0  0  0  0  0  0  0  0  0  0  0  0
    0.4763   -4.8884   -0.3977 C   0  0  0  0  0  0  0  0  0  0  0  0
    0.0454   -3.6355   -0.8167 C   0  0  0  0  0  0  0  0  0  0  0  0
   -0.6022   -3.4021   -1.9928 O   0  0  0  0  0  0  0  0  0  0  0  0
   -0.7172   -4.4554   -2.9164 C   0  0  0  0  0  0  0  0  0  0  0  0
    0.9059   -0.1958   -0.3810 N   0  0  0  0  0  0  0  0  0  0  0  0
    2.1449   -0.4579   -0.8751 C   0  0  0  0  0  0  0  0  0  0  0  0
    3.1321    0.6484   -0.6547 C   0  0  0  0  0  0  0  0  0  0  0  0
    3.6790    1.3412   -1.7350 C   0  0  0  0  0  0  0  0  0  0  0  0
    3.2700    0.9974   -3.1331 C   0  0  0  0  0  0  0  0  0  0  0  0
    4.6077    2.3410   -1.4776 C   0  0  0  0  0  0  0  0  0  0  0  0
    4.9988    2.6383   -0.1839 C   0  0  0  0  0  0  0  0  0  0  0  0
    4.4719    1.9277    0.8805 C   0  0  0  0  0  0  0  0  0  0  0  0
    3.5404    0.9339    0.6426 C   0  0  0  0  0  0  0  0  0  0  0  0
    2.4341   -1.5106   -1.4015 O   0  0  0  0  0  0  0  0  0  0  0  0
    0.4052    1.0859    0.0265 C   0  0  0  0  0  0  0  0  0  0  0  0
   -0.1151    1.9309   -1.1571 C   0  0  0  0  0  0  0  0  0  0  0  0
   -0.1938    1.2450   -2.2915 O   0  0  0  0  0  0  0  0  0  0  0  0
   -0.4320    3.0842   -1.0557 O   0  0  0  0  0  0  0  0  0  0  0  0
   -0.7014    0.7517    0.8875 N   0  0  0  0  0  0  0  0  0  0  0  0
   -1.0672    1.3756    2.0417 C   0  0  0  0  0  0  0  0  0  0  0  0
   -0.2741    2.6008    2.3729 C   0  0  0  0  0  0  0  0  0  0  0  0
    0.9841    2.4416    2.9433 C   0  0  0  0  0  0  0  0  0  0  0  0
    1.7414    3.5457    3.2873 C   0  0  0  0  0  0  0  0  0  0  0  0
    1.2364    4.8153    3.0643 C   0  0  0  0  0  0  0  0  0  0  0  0
   -0.0222    4.9730    2.5142 C   0  0  0  0  0  0  0  0  0  0  0  0
   -0.7992    3.8754    2.1645 C   0  0  0  0  0  0  0  0  0  0  0  0
   -2.1497    4.0576    1.5481 C   0  0  0  0  0  0  0  0  0  0  0  0
   -1.9600    0.9405    2.7369 O   0  0  0  0  0  0  0  0  0  0  0  0
   -4.2877   -4.0556    0.6824 H   0  0  0  0  0  0  0  0  0  0  0  0
   -2.6520   -4.7546    0.5721 H   0  0  0  0  0  0  0  0  0  0  0  0
   -3.5225   -4.2968   -0.9147 H   0  0  0  0  0  0  0  0  0  0  0  0
   -5.1323   -2.5924   -0.9678 H   0  0  0  0  0  0  0  0  0  0  0  0
   -6.0895   -0.5011   -1.7814 H   0  0  0  0  0  0  0  0  0  0  0  0
   -4.8557    1.6240   -1.5230 H   0  0  0  0  0  0  0  0  0  0  0  0
   -2.6432    1.6262   -0.4504 H   0  0  0  0  0  0  0  0  0  0  0  0
   -1.3447   -1.1443    1.4395 H   0  0  0  0  0  0  0  0  0  0  0  0
   -0.5850   -1.2271   -1.4434 H   0  0  0  0  0  0  0  0  0  0  0  0
    1.0659   -1.8355    1.8590 H   0  0  0  0  0  0  0  0  0  0  0  0
    1.8257   -4.0650    2.5910 H   0  0  0  0  0  0  0  0  0  0  0  0
    1.4448   -6.0199    1.1279 H   0  0  0  0  0  0  0  0  0  0  0  0
    0.3261   -5.7582   -1.0179 H   0  0  0  0  0  0  0  0  0  0  0  0
   -1.1972   -4.0252   -3.7948 H   0  0  0  0  0  0  0  0  0  0  0  0
    0.2636   -4.8500   -3.1982 H   0  0  0  0  0  0  0  0  0  0  0  0
   -1.3402   -5.2695   -2.5293 H   0  0  0  0  0  0  0  0  0  0  0  0
    3.7766    1.6331   -3.8549 H   0  0  0  0  0  0  0  0  0  0  0  0
    2.1933    1.1051   -3.2568 H   0  0  0  0  0  0  0  0  0  0  0  0
    3.5156   -0.0432   -3.3396 H   0  0  0  0  0  0  0  0  0  0  0  0
    5.0343    2.8904   -2.3046 H   0  0  0  0  0  0  0  0  0  0  0  0
    5.7230    3.4196   -0.0072 H   0  0  0  0  0  0  0  0  0  0  0  0
    4.7858    2.1444    1.8902 H   0  0  0  0  0  0  0  0  0  0  0  0
    3.1350    0.3600    1.4639 H   0  0  0  0  0  0  0  0  0  0  0  0
    1.1517    1.6945    0.5511 H   0  0  0  0  0  0  0  0  0  0  0  0
   -0.5654    1.7902   -3.0050 H   0  0  0  0  0  0  0  0  0  0  0  0
    1.3614    1.4455    3.1291 H   0  0  0  0  0  0  0  0  0  0  0  0
    2.7175    3.4157    3.7297 H   0  0  0  0  0  0  0  0  0  0  0  0
    1.8223    5.6837    3.3273 H   0  0  0  0  0  0  0  0  0  0  0  0
   -0.4152    5.9663    2.3521 H   0  0  0  0  0  0  0  0  0  0  0  0
   -2.0543    4.0157    0.4627 H   0  0  0  0  0  0  0  0  0  0  0  0
   -2.5688    5.0245    1.8157 H   0  0  0  0  0  0  0  0  0  0  0  0
   -2.8305    3.2718    1.8671 H   0  0  0  0  0  0  0  0  0  0  0  0
  1  2  1  0  0  0  0
  2  3  1  0  0  0  0
  1  4  4  0  0  0  0
  4  5  4  0  0  0  0
  5  6  4  0  0  0  0
  6  7  4  0  0  0  0
  1  8  4  0  0  0  0
  7  8  4  0  0  0  0
  8  9  1  0  0  0  0
  9 10  1  0  0  0  0
 10 11  1  0  0  0  0
 11 12  4  0  0  0  0
 12 13  4  0  0  0  0
 13 14  4  0  0  0  0
 14 15  4  0  0  0  0
 11 16  4  0  0  0  0
 15 16  4  0  0  0  0
 16 17  1  0  0  0  0
 17 18  1  0  0  0  0
 10 19  1  0  0  0  0
 19 20  4  0  0  0  0
 20 21  1  0  0  0  0
 21 22  4  0  0  0  0
 22 23  1  0  0  0  0
 22 24  4  0  0  0  0
 24 25  4  0  0  0  0
 25 26  4  0  0  0  0
 21 27  4  0  0  0  0
 26 27  4  0  0  0  0
 20 28  2  0  0  0  0
 19 29  1  0  0  0  0
 29 30  1  0  0  0  0
 30 31  1  0  0  0  0
 30 32  2  0  0  0  0
  9 33  1  0  0  0  0
 29 33  1  0  0  0  0
 33 34  1  0  0  0  0
 34 35  1  0  0  0  0
 35 36  4  0  0  0  0
 36 37  4  0  0  0  0
 37 38  4  0  0  0  0
 38 39  4  0  0  0  0
 35 40  4  0  0  0  0
 39 40  4  0  0  0  0
 40 41  1  0  0  0  0
 34 42  2  0  0  0  0
  3 43  1  0  0  0  0
  3 44  1  0  0  0  0
  3 45  1  0  0  0  0
  4 46  1  0  0  0  0
  5 47  1  0  0  0  0
  6 48  1  0  0  0  0
  7 49  1  0  0  0  0
  9 50  1  0  0  0  0
 10 51  1  0  0  0  0
 12 52  1  0  0  0  0
 13 53  1  0  0  0  0
 14 54  1  0  0  0  0
 15 55  1  0  0  0  0
 18 56  1  0  0  0  0
 18 57  1  0  0  0  0
 18 58  1  0  0  0  0
 23 59  1  0  0  0  0
 23 60  1  0  0  0  0
 23 61  1  0  0  0  0
 24 62  1  0  0  0  0
 25 63  1  0  0  0  0
 26 64  1  0  0  0  0
 27 65  1  0  0  0  0
 29 66  1  0  0  0  0
 31 67  1  0  0  0  0
 36 68  1  0  0  0  0
 37 69  1  0  0  0  0
 38 70  1  0  0  0  0
 39 71  1  0  0  0  0
 41 72  1  0  0  0  0
 41 73  1  0  0  0  0
 41 74  1  0  0  0  0
M  END
