72

O      1.051440   -3.798976    0.476941
C      1.325063   -2.605369    0.589118
C      2.626105   -2.213317    1.166087
C      2.780034   -2.312516    2.556104
C      3.990816   -1.941757    3.143760
C      5.045223   -1.493570    2.344818
C      4.894738   -1.414007    0.957441
C      3.687825   -1.787936    0.361843
N      0.390453   -1.630233    0.331801
C     -0.991692   -1.961891   -0.017132
C     -1.764295   -2.705140    1.131415
O     -1.247403   -3.914117    1.476506
O     -2.788763   -2.296662    1.665435
N     -1.615689   -0.678745   -0.338944
C     -2.621459   -0.485279   -1.268463
C     -3.313597   -1.667222   -1.811697
C     -2.988405   -2.100947   -3.101067
C     -3.633884   -3.216948   -3.634504
C     -4.606267   -3.882385   -2.885728
C     -4.940739   -3.432279   -1.606316
C     -4.305780   -2.311742   -1.070659
O     -2.923038    0.609940   -1.732411
C     -0.765425    0.444636    0.061221
C     -1.222915    1.128393    1.355520
C     -1.076238    0.450410    2.585050
C     -1.380088    1.062002    3.796372
C     -1.834021    2.372903    3.812132
C     -2.016623    3.081886    2.618542
C     -1.736694    2.467795    1.366847
C     -1.992290    3.250373    0.210860
C     -2.458421    4.567763    0.283158
C     -2.694678    5.149348    1.517972
C     -2.480354    4.406893    2.676297
C      0.648822   -0.187714    0.163123
C      1.451912    0.147050   -1.106228
C      2.222560    1.349368   -1.186882
C      2.296346    2.322249   -0.159542
C      3.068239    3.479946   -0.293258
C      3.796068    3.702040   -1.454091
C      3.738394    2.771359   -2.488756
C      2.960597    1.606692   -2.374612
C      2.910389    0.706338   -3.447846
C      2.128879   -0.440091   -3.380271
C      1.401312   -0.712142   -2.227248
H      1.963492   -2.662588    3.183239
H      4.111558   -1.995623    4.224692
H      5.985313   -1.198652    2.804926
H      5.715384   -1.057415    0.337835
H      3.589904   -1.719656   -0.720419
H     -0.991713   -2.612411   -0.897125
H     -0.396555   -4.132360    1.020671
H     -2.247677   -1.564628   -3.689697
H     -3.396329   -3.554153   -4.640571
H     -5.118034   -4.744887   -3.308747
H     -5.708998   -3.945282   -1.030585
H     -4.587784   -1.947384   -0.086284
H     -0.756233    1.176819   -0.749142
H     -0.716897   -0.572767    2.628533
H     -1.263930    0.512659    4.728154
H     -2.057422    2.834082    4.772099
H     -1.867380    2.842834   -0.788119
H     -2.646210    5.124148   -0.632845
H     -3.057216    6.169982    1.585126
H     -2.684067    4.875096    3.636490
H      1.214491    0.138633    1.041776
H      1.742039    2.212025    0.771488
H      3.089630    4.208533    0.512218
H      4.397641    4.602400   -1.560389
H      4.304602    2.966862   -3.400128
H      3.473938    0.900491   -4.360355
H      2.088301   -1.122183   -4.228394
H      0.803691   -1.620972   -2.217152
