72

C     -4.092766    2.018676   -2.127557
C     -3.594411    1.561337   -3.343389
C     -2.335075    0.985168   -3.391435
C     -1.574577    0.871477   -2.224251
C     -2.043355    1.330423   -0.968256
C     -3.341413    1.908167   -0.946139
C     -3.889666    2.371742    0.256179
C     -3.185891    2.269767    1.448716
C     -1.914314    1.712898    1.450325
C     -1.312799    1.250538    0.259250
C      0.087873    0.664868    0.406103
C      0.091823   -0.878512    0.230090
C     -0.010656   -1.604524    1.571222
C      1.154446   -1.773602    2.347085
C      1.109411   -2.389597    3.591808
C     -0.103414   -2.842758    4.094554
C     -1.287885   -2.686171    3.364495
C     -1.264014   -2.064718    2.087004
C     -2.505896   -1.945064    1.414304
C     -3.701859   -2.406956    1.971391
C     -3.697849   -3.008479    3.219954
C     -2.497303   -3.147827    3.910328
N      1.327230   -1.168745   -0.507922
C      1.439914   -2.373038   -1.186873
C      2.713431   -2.656365   -1.818375
C      3.918658   -2.789749   -1.160396
O      4.912921   -3.084143   -2.033915
C      4.342243   -3.185463   -3.260167
C      2.983635   -2.953453   -3.191473
C      2.006969   -3.003450   -4.305588
O      0.515503   -3.175657   -1.265394
C      1.957368    0.059239   -0.989048
C      3.345903    0.252983   -0.327389
O      4.350864    0.359597   -1.221715
O      3.577317    0.318089    0.872387
N      1.089916    1.140446   -0.550089
C      1.396805    2.428572   -0.936602
C      0.768859    3.525776   -0.230848
C     -0.074428    4.441351   -0.825819
O     -0.493453    5.365705    0.073251
C      0.105875    5.067849    1.251702
C      0.917187    3.957235    1.128630
C      1.773065    3.375287    2.190395
O      2.196224    2.642028   -1.844594
H     -5.084951    2.465409   -2.108236
H     -4.190473    1.653837   -4.247196
H     -1.938479    0.621154   -4.335793
H     -0.600696    0.406403   -2.327293
H     -4.882256    2.817078    0.275791
H     -3.627484    2.627610    2.374764
H     -1.386873    1.642534    2.401051
H      0.496569    0.928784    1.389183
H     -0.714937   -1.205797   -0.431894
H      2.119400   -1.422408    1.989736
H      2.020467   -2.515436    4.171038
H     -0.116266   -3.323098    5.070833
H     -2.578426   -1.491082    0.430190
H     -4.632538   -2.298671    1.419226
H     -4.624149   -3.372957    3.654846
H     -2.513158   -3.625483    4.887909
H      4.217411   -2.713724   -0.123522
H      5.017182   -3.437483   -4.067101
H      1.283208   -3.808413   -4.144089
H      1.461834   -2.056886   -4.379993
H      2.505972   -3.182267   -5.263562
H      2.043291    0.061471   -2.081306
H      5.158344    0.519426   -0.691633
H     -0.463126    4.552964   -1.828840
H     -0.123833    5.737255    2.069334
H      1.175564    2.755546    2.866000
H      2.246349    4.165979    2.781897
H      2.569636    2.757306    1.766722
