90

C     -2.844413   -2.140590   -0.580222
C     -3.162984   -2.620101    0.823301
F     -4.407662   -3.163971    0.953947
F     -2.297834   -3.584783    1.237524
F     -3.098035   -1.636533    1.763733
C     -3.735151   -2.497364   -1.613646
C     -3.485768   -2.147697   -2.940068
C     -2.333140   -1.447518   -3.263904
C     -1.435230   -1.083689   -2.260754
C     -1.674881   -1.403708   -0.905401
C     -0.659740   -0.966011    0.150183
C      0.668724   -1.787230    0.025068
C      0.780050   -2.909879    1.053140
C      0.741864   -4.279035    0.685585
C      0.563662   -4.745420   -0.745981
F      0.679481   -6.097339   -0.901982
F      1.446862   -4.202365   -1.625766
F     -0.675356   -4.431845   -1.221629
C      0.816360   -5.260844    1.696893
C      0.940317   -4.913849    3.040763
C      0.985465   -3.575512    3.402484
C      0.906631   -2.587498    2.421776
N      1.741977   -0.792893    0.123417
C      3.049512   -1.125350   -0.189529
C      4.071741   -0.062584   -0.192807
C      4.994454   -0.011936    0.849871
C      5.941539    1.016808    0.890060
C      5.993153    2.002013   -0.112301
C      6.997462    3.168441   -0.074721
C      7.905502    3.173434    1.176269
C      6.231049    4.510079   -0.084267
C      7.922077    3.107411   -1.307623
C      5.082022    1.887234   -1.185537
C      4.136816    0.859415   -1.234927
O      3.420635   -2.266335   -0.447124
C      1.209866    0.556515    0.264625
C      1.447478    1.170924    1.682171
O      2.341734    0.507199    2.447151
O      0.928505    2.176031    2.143811
N     -0.215135    0.433021    0.016052
C     -0.938582    1.580120   -0.252259
C     -2.408789    1.539646   -0.176295
C     -3.046703    1.224645    1.020290
C     -4.442415    1.145113    1.062158
C     -5.225341    1.382776   -0.083283
C     -6.759461    1.260388   -0.053203
C     -7.353206    2.652538    0.233630
C     -7.324575    0.743879   -1.397456
C     -7.261110    0.278302    1.030932
C     -4.552342    1.778350   -1.255513
C     -3.156874    1.865728   -1.303023
O     -0.402195    2.638505   -0.573177
H     -4.635148   -3.068356   -1.386369
H     -4.185669   -2.438586   -3.717618
H     -2.128521   -1.184877   -4.298962
H     -0.542284   -0.529476   -2.546900
H     -1.071050   -1.037792    1.159132
H      0.760945   -2.194143   -0.986530
H      0.771425   -6.317779    1.435141
H      0.990279   -5.687681    3.801066
H      1.083194   -3.301706    4.450283
H      0.945432   -1.549401    2.744403
H      4.968066   -0.756765    1.639302
H      6.627345    1.025769    1.733564
H      8.584128    4.035202    1.165757
H      7.322373    3.230977    2.101426
H      8.530691    2.274533    1.222712
H      6.918959    5.361993   -0.026445
H      5.541900    4.575302    0.767205
H      5.638282    4.641704   -0.996813
H      7.369889    3.215844   -2.246072
H      8.667638    3.910103   -1.279003
H      8.460199    2.153635   -1.347284
H      5.095439    2.607523   -2.003683
H      3.459033    0.788886   -2.081253
H      1.657883    1.231884   -0.467649
H      2.411159    1.064896    3.249192
H     -2.469346    1.031878    1.921423
H     -4.900853    0.891941    2.017760
H     -8.448610    2.615950    0.259716
H     -7.065832    3.377910   -0.537208
H     -7.008505    3.039763    1.200256
H     -6.848288   -0.198310   -1.693277
H     -8.402835    0.562941   -1.331114
H     -7.185629    1.463363   -2.209743
H     -8.345489    0.140260    0.965514
H     -7.057398    0.639281    2.045109
H     -6.794626   -0.707042    0.922050
H     -5.100595    2.019862   -2.162385
H     -2.661595    2.153877   -2.227904
