
  xtb     03172201283D
 xtb: 6.3.3 (4ae9cef)
 90 94  0     0  0            999 V2000
   -2.9062   -1.9310   -0.3879 C   0  0  0  0  0  0  0  0  0  0  0  0
   -3.0116   -2.4659    1.0151 C   0  0  0  0  0  0  0  0  0  0  0  0
   -4.2169   -2.9901    1.2774 F   0  0  0  0  0  0  0  0  0  0  0  0
   -2.1207   -3.4485    1.2536 F   0  0  0  0  0  0  0  0  0  0  0  0
   -2.8074   -1.5544    1.9836 F   0  0  0  0  0  0  0  0  0  0  0  0
   -3.9382   -2.2377   -1.2686 C   0  0  0  0  0  0  0  0  0  0  0  0
   -3.8770   -1.8425   -2.5899 C   0  0  0  0  0  0  0  0  0  0  0  0
   -2.7655   -1.1577   -3.0478 C   0  0  0  0  0  0  0  0  0  0  0  0
   -1.7376   -0.8576   -2.1771 C   0  0  0  0  0  0  0  0  0  0  0  0
   -1.7922   -1.2186   -0.8344 C   0  0  0  0  0  0  0  0  0  0  0  0
   -0.6136   -0.8674    0.0389 C   0  0  0  0  0  0  0  0  0  0  0  0
    0.6068   -1.7610   -0.3032 C   0  0  0  0  0  0  0  0  0  0  0  0
    0.7801   -2.8864    0.6854 C   0  0  0  0  0  0  0  0  0  0  0  0
    0.6053   -4.2282    0.3470 C   0  0  0  0  0  0  0  0  0  0  0  0
    0.2052   -4.6324   -1.0434 C   0  0  0  0  0  0  0  0  0  0  0  0
    0.0405   -5.9529   -1.1824 F   0  0  0  0  0  0  0  0  0  0  0  0
    1.0818   -4.2691   -1.9957 F   0  0  0  0  0  0  0  0  0  0  0  0
   -0.9767   -4.0808   -1.4201 F   0  0  0  0  0  0  0  0  0  0  0  0
    0.7740   -5.2207    1.3044 C   0  0  0  0  0  0  0  0  0  0  0  0
    1.1140   -4.8861    2.6009 C   0  0  0  0  0  0  0  0  0  0  0  0
    1.2791   -3.5565    2.9475 C   0  0  0  0  0  0  0  0  0  0  0  0
    1.1099   -2.5674    1.9982 C   0  0  0  0  0  0  0  0  0  0  0  0
    1.7360   -0.8409   -0.2618 N   0  0  0  0  0  0  0  0  0  0  0  0
    3.0227   -1.2800   -0.1686 C   0  0  0  0  0  0  0  0  0  0  0  0
    4.0219   -0.1753   -0.0649 C   0  0  0  0  0  0  0  0  0  0  0  0
    4.6709    0.0513    1.1395 C   0  0  0  0  0  0  0  0  0  0  0  0
    5.5841    1.0853    1.2577 C   0  0  0  0  0  0  0  0  0  0  0  0
    5.8869    1.9071    0.1788 C   0  0  0  0  0  0  0  0  0  0  0  0
    6.8684    3.0644    0.2687 C   0  0  0  0  0  0  0  0  0  0  0  0
    7.4866    3.2096    1.6619 C   0  0  0  0  0  0  0  0  0  0  0  0
    6.1296    4.3676   -0.0680 C   0  0  0  0  0  0  0  0  0  0  0  0
    8.0058    2.8355   -0.7368 C   0  0  0  0  0  0  0  0  0  0  0  0
    5.2529    1.6423   -1.0337 C   0  0  0  0  0  0  0  0  0  0  0  0
    4.3341    0.6208   -1.1597 C   0  0  0  0  0  0  0  0  0  0  0  0
    3.3061   -2.4570   -0.1606 O   0  0  0  0  0  0  0  0  0  0  0  0
    1.3231    0.5365   -0.2311 C   0  0  0  0  0  0  0  0  0  0  0  0
    1.8070    1.2442    1.0518 C   0  0  0  0  0  0  0  0  0  0  0  0
    2.4494    2.3666    0.7900 O   0  0  0  0  0  0  0  0  0  0  0  0
    1.5841    0.8252    2.1556 O   0  0  0  0  0  0  0  0  0  0  0  0
   -0.1228    0.4775   -0.2177 N   0  0  0  0  0  0  0  0  0  0  0  0
   -0.8315    1.6349   -0.3583 C   0  0  0  0  0  0  0  0  0  0  0  0
   -2.3085    1.5081   -0.2265 C   0  0  0  0  0  0  0  0  0  0  0  0
   -2.8881    1.1764    0.9881 C   0  0  0  0  0  0  0  0  0  0  0  0
   -4.2621    1.0503    1.0953 C   0  0  0  0  0  0  0  0  0  0  0  0
   -5.0927    1.2500   -0.0003 C   0  0  0  0  0  0  0  0  0  0  0  0
   -6.6010    1.0751    0.0643 C   0  0  0  0  0  0  0  0  0  0  0  0
   -7.2720    2.4230   -0.2343 C   0  0  0  0  0  0  0  0  0  0  0  0
   -7.0278    0.0360   -0.9822 C   0  0  0  0  0  0  0  0  0  0  0  0
   -7.0790    0.5893    1.4350 C   0  0  0  0  0  0  0  0  0  0  0  0
   -4.4978    1.6394   -1.1991 C   0  0  0  0  0  0  0  0  0  0  0  0
   -3.1306    1.7798   -1.3132 C   0  0  0  0  0  0  0  0  0  0  0  0
   -0.2622    2.6823   -0.5896 O   0  0  0  0  0  0  0  0  0  0  0  0
   -4.7878   -2.8006   -0.9153 H   0  0  0  0  0  0  0  0  0  0  0  0
   -4.6873   -2.0836   -3.2594 H   0  0  0  0  0  0  0  0  0  0  0  0
   -2.6961   -0.8627   -4.0834 H   0  0  0  0  0  0  0  0  0  0  0  0
   -0.8709   -0.3231   -2.5364 H   0  0  0  0  0  0  0  0  0  0  0  0
   -0.8475   -0.9747    1.1026 H   0  0  0  0  0  0  0  0  0  0  0  0
    0.5103   -2.1414   -1.3259 H   0  0  0  0  0  0  0  0  0  0  0  0
    0.6384   -6.2549    1.0296 H   0  0  0  0  0  0  0  0  0  0  0  0
    1.2475   -5.6636    3.3368 H   0  0  0  0  0  0  0  0  0  0  0  0
    1.5404   -3.2869    3.9595 H   0  0  0  0  0  0  0  0  0  0  0  0
    1.2488   -1.5311    2.2717 H   0  0  0  0  0  0  0  0  0  0  0  0
    4.4495   -0.5780    1.9889 H   0  0  0  0  0  0  0  0  0  0  0  0
    6.0581    1.2360    2.2138 H   0  0  0  0  0  0  0  0  0  0  0  0
    8.1799    4.0480    1.6635 H   0  0  0  0  0  0  0  0  0  0  0  0
    6.7247    3.4050    2.4130 H   0  0  0  0  0  0  0  0  0  0  0  0
    8.0410    2.3163    1.9392 H   0  0  0  0  0  0  0  0  0  0  0  0
    6.8157    5.2100   -0.0135 H   0  0  0  0  0  0  0  0  0  0  0  0
    5.3189    4.5365    0.6380 H   0  0  0  0  0  0  0  0  0  0  0  0
    5.7058    4.3370   -1.0677 H   0  0  0  0  0  0  0  0  0  0  0  0
    7.6349    2.8049   -1.7571 H   0  0  0  0  0  0  0  0  0  0  0  0
    8.7353    3.6393   -0.6648 H   0  0  0  0  0  0  0  0  0  0  0  0
    8.5083    1.8935   -0.5280 H   0  0  0  0  0  0  0  0  0  0  0  0
    5.4728    2.2440   -1.9018 H   0  0  0  0  0  0  0  0  0  0  0  0
    3.8655    0.4307   -2.1146 H   0  0  0  0  0  0  0  0  0  0  0  0
    1.6707    1.1237   -1.0945 H   0  0  0  0  0  0  0  0  0  0  0  0
    2.6975    2.8348    1.6040 H   0  0  0  0  0  0  0  0  0  0  0  0
   -2.2682    1.0186    1.8578 H   0  0  0  0  0  0  0  0  0  0  0  0
   -4.6701    0.7825    2.0553 H   0  0  0  0  0  0  0  0  0  0  0  0
   -8.3536    2.3237   -0.1746 H   0  0  0  0  0  0  0  0  0  0  0  0
   -7.0163    2.7812   -1.2277 H   0  0  0  0  0  0  0  0  0  0  0  0
   -6.9532    3.1699    0.4895 H   0  0  0  0  0  0  0  0  0  0  0  0
   -6.5526   -0.9198   -0.7738 H   0  0  0  0  0  0  0  0  0  0  0  0
   -8.1066   -0.0999   -0.9530 H   0  0  0  0  0  0  0  0  0  0  0  0
   -6.7505    0.3427   -1.9868 H   0  0  0  0  0  0  0  0  0  0  0  0
   -8.1576    0.4486    1.4129 H   0  0  0  0  0  0  0  0  0  0  0  0
   -6.8530    1.3173    2.2103 H   0  0  0  0  0  0  0  0  0  0  0  0
   -6.6210   -0.3627    1.6934 H   0  0  0  0  0  0  0  0  0  0  0  0
   -5.1082    1.8405   -2.0661 H   0  0  0  0  0  0  0  0  0  0  0  0
   -2.6899    2.0866   -2.2499 H   0  0  0  0  0  0  0  0  0  0  0  0
  1  2  1  0  0  0  0
  2  3  1  0  0  0  0
  2  4  1  0  0  0  0
  2  5  1  0  0  0  0
  1  6  4  0  0  0  0
  6  7  4  0  0  0  0
  7  8  4  0  0  0  0
  8  9  4  0  0  0  0
  1 10  4  0  0  0  0
  9 10  4  0  0  0  0
 10 11  1  0  0  0  0
 11 12  1  0  0  0  0
 12 13  1  0  0  0  0
 13 14  4  0  0  0  0
 14 15  1  0  0  0  0
 15 16  1  0  0  0  0
 15 17  1  0  0  0  0
 15 18  1  0  0  0  0
 14 19  4  0  0  0  0
 19 20  4  0  0  0  0
 20 21  4  0  0  0  0
 13 22  4  0  0  0  0
 21 22  4  0  0  0  0
 12 23  1  0  0  0  0
 23 24  1  0  0  0  0
 24 25  1  0  0  0  0
 25 26  4  0  0  0  0
 26 27  4  0  0  0  0
 27 28  4  0  0  0  0
 28 29  1  0  0  0  0
 29 30  1  0  0  0  0
 29 31  1  0  0  0  0
 29 32  1  0  0  0  0
 28 33  4  0  0  0  0
 25 34  4  0  0  0  0
 33 34  4  0  0  0  0
 24 35  2  0  0  0  0
 23 36  1  0  0  0  0
 36 37  1  0  0  0  0
 37 38  1  0  0  0  0
 37 39  2  0  0  0  0
 11 40  1  0  0  0  0
 36 40  1  0  0  0  0
 40 41  1  0  0  0  0
 41 42  1  0  0  0  0
 42 43  4  0  0  0  0
 43 44  4  0  0  0  0
 44 45  4  0  0  0  0
 45 46  1  0  0  0  0
 46 47  1  0  0  0  0
 46 48  1  0  0  0  0
 46 49  1  0  0  0  0
 45 50  4  0  0  0  0
 42 51  4  0  0  0  0
 50 51  4  0  0  0  0
 41 52  2  0  0  0  0
  6 53  1  0  0  0  0
  7 54  1  0  0  0  0
  8 55  1  0  0  0  0
  9 56  1  0  0  0  0
 11 57  1  0  0  0  0
 12 58  1  0  0  0  0
 19 59  1  0  0  0  0
 20 60  1  0  0  0  0
 21 61  1  0  0  0  0
 22 62  1  0  0  0  0
 26 63  1  0  0  0  0
 27 64  1  0  0  0  0
 30 65  1  0  0  0  0
 30 66  1  0  0  0  0
 30 67  1  0  0  0  0
 31 68  1  0  0  0  0
 31 69  1  0  0  0  0
 31 70  1  0  0  0  0
 32 71  1  0  0  0  0
 32 72  1  0  0  0  0
 32 73  1  0  0  0  0
 33 74  1  0  0  0  0
 34 75  1  0  0  0  0
 36 76  1  0  0  0  0
 38 77  1  0  0  0  0
 43 78  1  0  0  0  0
 44 79  1  0  0  0  0
 47 80  1  0  0  0  0
 47 81  1  0  0  0  0
 47 82  1  0  0  0  0
 48 83  1  0  0  0  0
 48 84  1  0  0  0  0
 48 85  1  0  0  0  0
 49 86  1  0  0  0  0
 49 87  1  0  0  0  0
 49 88  1  0  0  0  0
 50 89  1  0  0  0  0
 51 90  1  0  0  0  0
M  END
