
  xtb     03172202193D
 xtb: 6.3.3 (4ae9cef)
 19 19  0     0  0            999 V2000
   -2.1569   -0.5879    1.2168 C   0  0  0  0  0  0  0  0  0  0  0  0
   -2.4260    0.1468    0.1551 C   0  0  0  0  0  0  0  0  0  0  0  0
   -1.4182    0.6914   -0.8188 C   0  0  0  0  0  0  0  0  0  0  0  0
   -0.0012    0.3236   -0.4857 C   0  0  0  0  0  0  0  0  0  0  0  0
    0.7643    1.1351    0.3418 C   0  0  0  0  0  0  0  0  0  0  0  0
    2.0639    0.7878    0.6651 C   0  0  0  0  0  0  0  0  0  0  0  0
    2.6156   -0.3794    0.1652 C   0  0  0  0  0  0  0  0  0  0  0  0
    1.8596   -1.1970   -0.6574 C   0  0  0  0  0  0  0  0  0  0  0  0
    0.5603   -0.8471   -0.9791 C   0  0  0  0  0  0  0  0  0  0  0  0
   -1.1501   -0.8669    1.4795 H   0  0  0  0  0  0  0  0  0  0  0  0
   -2.9370   -0.9424    1.8691 H   0  0  0  0  0  0  0  0  0  0  0  0
   -3.4511    0.4079   -0.0789 H   0  0  0  0  0  0  0  0  0  0  0  0
   -1.5233    1.7808   -0.8426 H   0  0  0  0  0  0  0  0  0  0  0  0
   -1.6739    0.3190   -1.8160 H   0  0  0  0  0  0  0  0  0  0  0  0
    0.3365    2.0459    0.7367 H   0  0  0  0  0  0  0  0  0  0  0  0
    2.6487    1.4305    1.3071 H   0  0  0  0  0  0  0  0  0  0  0  0
    3.6315   -0.6493    0.4133 H   0  0  0  0  0  0  0  0  0  0  0  0
    2.2845   -2.1089   -1.0515 H   0  0  0  0  0  0  0  0  0  0  0  0
   -0.0273   -1.4899   -1.6195 H   0  0  0  0  0  0  0  0  0  0  0  0
  1  2  2  0  0  0  0
  2  3  1  0  0  0  0
  3  4  1  0  0  0  0
  4  5  4  0  0  0  0
  5  6  4  0  0  0  0
  6  7  4  0  0  0  0
  7  8  4  0  0  0  0
  4  9  4  0  0  0  0
  8  9  4  0  0  0  0
  1 10  1  0  0  0  0
  1 11  1  0  0  0  0
  2 12  1  0  0  0  0
  3 13  1  0  0  0  0
  3 14  1  0  0  0  0
  5 15  1  0  0  0  0
  6 16  1  0  0  0  0
  7 17  1  0  0  0  0
  8 18  1  0  0  0  0
  9 19  1  0  0  0  0
M  END
