
  xtb     03162221263D
 xtb: 6.3.3 (4ae9cef)
 86 92  0     0  0            999 V2000
    2.8823   -2.1130   -0.1122 C   0  0  0  0  0  0  0  0  0  0  0  0
    2.7863   -2.5602   -1.5470 C   0  0  0  0  0  0  0  0  0  0  0  0
    1.7185   -3.3598   -1.7556 F   0  0  0  0  0  0  0  0  0  0  0  0
    3.8524   -3.2662   -1.9424 F   0  0  0  0  0  0  0  0  0  0  0  0
    2.6635   -1.5629   -2.4408 F   0  0  0  0  0  0  0  0  0  0  0  0
    3.9955   -2.5181    0.6185 C   0  0  0  0  0  0  0  0  0  0  0  0
    4.1011   -2.2122    1.9615 C   0  0  0  0  0  0  0  0  0  0  0  0
    3.0788   -1.5213    2.5900 C   0  0  0  0  0  0  0  0  0  0  0  0
    1.9796   -1.1034    1.8651 C   0  0  0  0  0  0  0  0  0  0  0  0
    1.8719   -1.3688    0.5021 C   0  0  0  0  0  0  0  0  0  0  0  0
    0.6578   -0.8492   -0.2297 C   0  0  0  0  0  0  0  0  0  0  0  0
   -0.6146   -1.6093    0.2220 C   0  0  0  0  0  0  0  0  0  0  0  0
   -1.0148   -2.7536   -0.6748 C   0  0  0  0  0  0  0  0  0  0  0  0
   -1.6625   -2.6258   -1.9066 C   0  0  0  0  0  0  0  0  0  0  0  0
   -2.0977   -1.3100   -2.4958 C   0  0  0  0  0  0  0  0  0  0  0  0
   -3.2528   -0.8556   -1.9761 F   0  0  0  0  0  0  0  0  0  0  0  0
   -1.2121   -0.3057   -2.3581 F   0  0  0  0  0  0  0  0  0  0  0  0
   -2.3135   -1.3952   -3.8203 F   0  0  0  0  0  0  0  0  0  0  0  0
   -1.9940   -3.7614   -2.6412 C   0  0  0  0  0  0  0  0  0  0  0  0
   -1.6724   -5.0221   -2.1807 C   0  0  0  0  0  0  0  0  0  0  0  0
   -1.0196   -5.1582   -0.9691 C   0  0  0  0  0  0  0  0  0  0  0  0
   -0.7030   -4.0352   -0.2319 C   0  0  0  0  0  0  0  0  0  0  0  0
   -1.6373   -0.5823    0.3370 N   0  0  0  0  0  0  0  0  0  0  0  0
   -2.8388   -0.9596    0.8811 C   0  0  0  0  0  0  0  0  0  0  0  0
   -3.8042    0.1186    1.1281 C   0  0  0  0  0  0  0  0  0  0  0  0
   -4.6104    0.2057    2.2393 C   0  0  0  0  0  0  0  0  0  0  0  0
   -4.6851   -0.6519    3.4471 C   0  0  0  0  0  0  0  0  0  0  0  0
   -5.3914    1.2922    2.1551 O   0  0  0  0  0  0  0  0  0  0  0  0
   -5.1299    1.9116    0.9730 C   0  0  0  0  0  0  0  0  0  0  0  0
   -5.8671    3.1115    0.6316 C   0  0  0  0  0  0  0  0  0  0  0  0
   -6.8730    3.5824    1.4772 C   0  0  0  0  0  0  0  0  0  0  0  0
   -7.5799    4.7246    1.1564 C   0  0  0  0  0  0  0  0  0  0  0  0
   -7.2965    5.4158   -0.0102 C   0  0  0  0  0  0  0  0  0  0  0  0
   -6.2983    4.9568   -0.8550 C   0  0  0  0  0  0  0  0  0  0  0  0
   -5.5870    3.8156   -0.5406 C   0  0  0  0  0  0  0  0  0  0  0  0
   -4.1513    1.2240    0.3064 C   0  0  0  0  0  0  0  0  0  0  0  0
   -3.0673   -2.1315    1.1132 O   0  0  0  0  0  0  0  0  0  0  0  0
   -1.0503    0.7290    0.4391 C   0  0  0  0  0  0  0  0  0  0  0  0
   -1.1517    1.2915    1.8764 C   0  0  0  0  0  0  0  0  0  0  0  0
   -1.9190    2.3688    1.9480 O   0  0  0  0  0  0  0  0  0  0  0  0
   -0.7057    0.7050    2.8306 O   0  0  0  0  0  0  0  0  0  0  0  0
    0.3504    0.5290    0.1208 N   0  0  0  0  0  0  0  0  0  0  0  0
    1.1877    1.4984    0.5697 C   0  0  0  0  0  0  0  0  0  0  0  0
    2.6080    1.3776    0.2387 C   0  0  0  0  0  0  0  0  0  0  0  0
    3.6568    1.6366    1.0896 C   0  0  0  0  0  0  0  0  0  0  0  0
    3.6665    2.0614    2.5092 C   0  0  0  0  0  0  0  0  0  0  0  0
    4.8187    1.4001    0.4634 O   0  0  0  0  0  0  0  0  0  0  0  0
    4.5451    1.0204   -0.8140 C   0  0  0  0  0  0  0  0  0  0  0  0
    5.6438    0.7029   -1.7045 C   0  0  0  0  0  0  0  0  0  0  0  0
    6.9614    0.7965   -1.2533 C   0  0  0  0  0  0  0  0  0  0  0  0
    8.0121    0.4880   -2.0949 C   0  0  0  0  0  0  0  0  0  0  0  0
    7.7667    0.0806   -3.3960 C   0  0  0  0  0  0  0  0  0  0  0  0
    6.4614   -0.0162   -3.8515 C   0  0  0  0  0  0  0  0  0  0  0  0
    5.4050    0.2919   -3.0170 C   0  0  0  0  0  0  0  0  0  0  0  0
    3.1886    0.9948   -0.9990 C   0  0  0  0  0  0  0  0  0  0  0  0
    0.7244    2.4322    1.2134 O   0  0  0  0  0  0  0  0  0  0  0  0
    4.7789   -3.0758    0.1299 H   0  0  0  0  0  0  0  0  0  0  0  0
    4.9726   -2.5257    2.5144 H   0  0  0  0  0  0  0  0  0  0  0  0
    3.1353   -1.3042    3.6455 H   0  0  0  0  0  0  0  0  0  0  0  0
    1.1938   -0.5506    2.3606 H   0  0  0  0  0  0  0  0  0  0  0  0
    0.7814   -0.9286   -1.3127 H   0  0  0  0  0  0  0  0  0  0  0  0
   -0.4400   -2.0340    1.2224 H   0  0  0  0  0  0  0  0  0  0  0  0
   -2.5074   -3.6512   -3.5838 H   0  0  0  0  0  0  0  0  0  0  0  0
   -1.9363   -5.8898   -2.7645 H   0  0  0  0  0  0  0  0  0  0  0  0
   -0.7648   -6.1369   -0.5934 H   0  0  0  0  0  0  0  0  0  0  0  0
   -0.2054   -4.1474    0.7194 H   0  0  0  0  0  0  0  0  0  0  0  0
   -4.2992   -1.6381    3.2062 H   0  0  0  0  0  0  0  0  0  0  0  0
   -4.0910   -0.2282    4.2580 H   0  0  0  0  0  0  0  0  0  0  0  0
   -5.7162   -0.7303    3.7841 H   0  0  0  0  0  0  0  0  0  0  0  0
   -7.0934    3.0413    2.3848 H   0  0  0  0  0  0  0  0  0  0  0  0
   -8.3569    5.0782    1.8184 H   0  0  0  0  0  0  0  0  0  0  0  0
   -7.8504    6.3083   -0.2603 H   0  0  0  0  0  0  0  0  0  0  0  0
   -6.0738    5.4940   -1.7648 H   0  0  0  0  0  0  0  0  0  0  0  0
   -4.8100    3.4658   -1.2013 H   0  0  0  0  0  0  0  0  0  0  0  0
   -3.7622    1.4397   -0.6653 H   0  0  0  0  0  0  0  0  0  0  0  0
   -1.5029    1.4498   -0.2540 H   0  0  0  0  0  0  0  0  0  0  0  0
   -1.9324    2.7208    2.8518 H   0  0  0  0  0  0  0  0  0  0  0  0
    4.2650    2.9635    2.6260 H   0  0  0  0  0  0  0  0  0  0  0  0
    2.6485    2.2644    2.8267 H   0  0  0  0  0  0  0  0  0  0  0  0
    4.1004    1.2840    3.1377 H   0  0  0  0  0  0  0  0  0  0  0  0
    7.1487    1.1146   -0.2389 H   0  0  0  0  0  0  0  0  0  0  0  0
    9.0278    0.5658   -1.7353 H   0  0  0  0  0  0  0  0  0  0  0  0
    8.5891   -0.1604   -4.0529 H   0  0  0  0  0  0  0  0  0  0  0  0
    6.2664   -0.3345   -4.8648 H   0  0  0  0  0  0  0  0  0  0  0  0
    4.3926    0.2127   -3.3780 H   0  0  0  0  0  0  0  0  0  0  0  0
    2.6590    0.7776   -1.9012 H   0  0  0  0  0  0  0  0  0  0  0  0
  1  2  1  0  0  0  0
  2  3  1  0  0  0  0
  2  4  1  0  0  0  0
  2  5  1  0  0  0  0
  1  6  4  0  0  0  0
  6  7  4  0  0  0  0
  7  8  4  0  0  0  0
  8  9  4  0  0  0  0
  1 10  4  0  0  0  0
  9 10  4  0  0  0  0
 10 11  1  0  0  0  0
 11 12  1  0  0  0  0
 12 13  1  0  0  0  0
 13 14  4  0  0  0  0
 14 15  1  0  0  0  0
 15 16  1  0  0  0  0
 15 17  1  0  0  0  0
 15 18  1  0  0  0  0
 14 19  4  0  0  0  0
 19 20  4  0  0  0  0
 20 21  4  0  0  0  0
 13 22  4  0  0  0  0
 21 22  4  0  0  0  0
 12 23  1  0  0  0  0
 23 24  1  0  0  0  0
 24 25  1  0  0  0  0
 25 26  4  0  0  0  0
 26 27  1  0  0  0  0
 26 28  1  0  0  0  0
 28 29  1  0  0  0  0
 29 30  1  0  0  0  0
 30 31  4  0  0  0  0
 31 32  4  0  0  0  0
 32 33  4  0  0  0  0
 33 34  4  0  0  0  0
 30 35  4  0  0  0  0
 34 35  4  0  0  0  0
 25 36  4  0  0  0  0
 29 36  2  0  0  0  0
 24 37  2  0  0  0  0
 23 38  1  0  0  0  0
 38 39  1  0  0  0  0
 39 40  1  0  0  0  0
 39 41  2  0  0  0  0
 11 42  1  0  0  0  0
 38 42  1  0  0  0  0
 42 43  4  0  0  0  0
 43 44  1  0  0  0  0
 44 45  4  0  0  0  0
 45 46  1  0  0  0  0
 45 47  1  0  0  0  0
 47 48  1  0  0  0  0
 48 49  1  0  0  0  0
 49 50  4  0  0  0  0
 50 51  4  0  0  0  0
 51 52  4  0  0  0  0
 52 53  4  0  0  0  0
 49 54  4  0  0  0  0
 53 54  4  0  0  0  0
 44 55  4  0  0  0  0
 48 55  2  0  0  0  0
 43 56  2  0  0  0  0
  6 57  1  0  0  0  0
  7 58  1  0  0  0  0
  8 59  1  0  0  0  0
  9 60  1  0  0  0  0
 11 61  1  0  0  0  0
 12 62  1  0  0  0  0
 19 63  1  0  0  0  0
 20 64  1  0  0  0  0
 21 65  1  0  0  0  0
 22 66  1  0  0  0  0
 27 67  1  0  0  0  0
 27 68  1  0  0  0  0
 27 69  1  0  0  0  0
 31 70  1  0  0  0  0
 32 71  1  0  0  0  0
 33 72  1  0  0  0  0
 34 73  1  0  0  0  0
 35 74  1  0  0  0  0
 36 75  1  0  0  0  0
 38 76  1  0  0  0  0
 40 77  1  0  0  0  0
 46 78  1  0  0  0  0
 46 79  1  0  0  0  0
 46 80  1  0  0  0  0
 50 81  1  0  0  0  0
 51 82  1  0  0  0  0
 52 83  1  0  0  0  0
 53 84  1  0  0  0  0
 54 85  1  0  0  0  0
 55 86  1  0  0  0  0
M  END
