
  xtb     03172201253D
 xtb: 6.3.3 (4ae9cef)
 66 72  0     0  0            999 V2000
    2.1403   -1.1194   -0.8460 C   0  0  0  0  0  0  0  0  0  0  0  0
    3.3851   -1.2931   -1.3773 C   0  0  0  0  0  0  0  0  0  0  0  0
    4.3127   -0.2314   -1.4147 C   0  0  0  0  0  0  0  0  0  0  0  0
    5.6108   -0.3835   -1.9436 C   0  0  0  0  0  0  0  0  0  0  0  0
    6.4853    0.6669   -1.9578 C   0  0  0  0  0  0  0  0  0  0  0  0
    6.1020    1.9161   -1.4442 C   0  0  0  0  0  0  0  0  0  0  0  0
    4.8501    2.0956   -0.9265 C   0  0  0  0  0  0  0  0  0  0  0  0
    3.9243    1.0318   -0.8983 C   0  0  0  0  0  0  0  0  0  0  0  0
    2.6300    1.1809   -0.3626 C   0  0  0  0  0  0  0  0  0  0  0  0
    1.7513    0.1306   -0.3247 C   0  0  0  0  0  0  0  0  0  0  0  0
    0.3753    0.3079    0.2690 C   0  0  0  0  0  0  0  0  0  0  0  0
   -0.7171    0.2860   -0.8218 C   0  0  0  0  0  0  0  0  0  0  0  0
   -1.9304    1.1503   -0.5708 C   0  0  0  0  0  0  0  0  0  0  0  0
   -2.2506    1.6893    0.6466 C   0  0  0  0  0  0  0  0  0  0  0  0
   -3.4486    2.4118    0.8308 C   0  0  0  0  0  0  0  0  0  0  0  0
   -3.7966    2.9660    2.0803 C   0  0  0  0  0  0  0  0  0  0  0  0
   -4.9663    3.6562    2.2359 C   0  0  0  0  0  0  0  0  0  0  0  0
   -5.8406    3.8233    1.1504 C   0  0  0  0  0  0  0  0  0  0  0  0
   -5.5321    3.2949   -0.0722 C   0  0  0  0  0  0  0  0  0  0  0  0
   -4.3343    2.5766   -0.2645 C   0  0  0  0  0  0  0  0  0  0  0  0
   -3.9837    2.0084   -1.5076 C   0  0  0  0  0  0  0  0  0  0  0  0
   -2.8183    1.3156   -1.6555 C   0  0  0  0  0  0  0  0  0  0  0  0
   -1.1446   -1.1092   -0.8233 N   0  0  0  0  0  0  0  0  0  0  0  0
   -1.1229   -1.8526   -1.9686 C   0  0  0  0  0  0  0  0  0  0  0  0
   -1.4300   -3.2848   -1.8127 C   0  0  0  0  0  0  0  0  0  0  0  0
   -2.4185   -3.8856   -1.0793 C   0  0  0  0  0  0  0  0  0  0  0  0
   -2.4002   -5.2086   -1.2651 O   0  0  0  0  0  0  0  0  0  0  0  0
   -1.3968   -5.4831   -2.1164 C   0  0  0  0  0  0  0  0  0  0  0  0
   -0.7677   -4.3428   -2.5002 C   0  0  0  0  0  0  0  0  0  0  0  0
   -0.8751   -1.3435   -3.0426 O   0  0  0  0  0  0  0  0  0  0  0  0
   -1.1008   -1.5550    0.5383 C   0  0  0  0  0  0  0  0  0  0  0  0
   -2.4292   -1.2787    1.2629 C   0  0  0  0  0  0  0  0  0  0  0  0
   -2.2518   -0.7724    2.4752 O   0  0  0  0  0  0  0  0  0  0  0  0
   -3.5040   -1.5369    0.7952 O   0  0  0  0  0  0  0  0  0  0  0  0
    0.0031   -0.8162    1.1209 N   0  0  0  0  0  0  0  0  0  0  0  0
    0.8219   -1.4454    2.0094 C   0  0  0  0  0  0  0  0  0  0  0  0
    2.0049   -0.6713    2.4379 C   0  0  0  0  0  0  0  0  0  0  0  0
    3.2859   -1.1459    2.4897 C   0  0  0  0  0  0  0  0  0  0  0  0
    4.1246   -0.2027    2.9285 O   0  0  0  0  0  0  0  0  0  0  0  0
    3.3910    0.8900    3.1916 C   0  0  0  0  0  0  0  0  0  0  0  0
    2.0804    0.6696    2.9097 C   0  0  0  0  0  0  0  0  0  0  0  0
    0.5762   -2.5638    2.4166 O   0  0  0  0  0  0  0  0  0  0  0  0
    1.4491   -1.9485   -0.8168 H   0  0  0  0  0  0  0  0  0  0  0  0
    3.6778   -2.2537   -1.7752 H   0  0  0  0  0  0  0  0  0  0  0  0
    5.9009   -1.3470   -2.3374 H   0  0  0  0  0  0  0  0  0  0  0  0
    7.4784    0.5444   -2.3645 H   0  0  0  0  0  0  0  0  0  0  0  0
    6.8067    2.7345   -1.4630 H   0  0  0  0  0  0  0  0  0  0  0  0
    4.5495    3.0552   -0.5304 H   0  0  0  0  0  0  0  0  0  0  0  0
    2.3417    2.1455    0.0324 H   0  0  0  0  0  0  0  0  0  0  0  0
    0.3472    1.2487    0.8245 H   0  0  0  0  0  0  0  0  0  0  0  0
   -0.3016    0.5099   -1.8102 H   0  0  0  0  0  0  0  0  0  0  0  0
   -1.6054    1.5704    1.5050 H   0  0  0  0  0  0  0  0  0  0  0  0
   -3.1196    2.8362    2.9140 H   0  0  0  0  0  0  0  0  0  0  0  0
   -5.2263    4.0788    3.1955 H   0  0  0  0  0  0  0  0  0  0  0  0
   -6.7599    4.3727    1.2913 H   0  0  0  0  0  0  0  0  0  0  0  0
   -6.2028    3.4185   -0.9104 H   0  0  0  0  0  0  0  0  0  0  0  0
   -4.6585    2.1281   -2.3425 H   0  0  0  0  0  0  0  0  0  0  0  0
   -2.5582    0.8716   -2.6046 H   0  0  0  0  0  0  0  0  0  0  0  0
   -3.1842   -3.4715   -0.4531 H   0  0  0  0  0  0  0  0  0  0  0  0
   -1.2337   -6.5114   -2.3701 H   0  0  0  0  0  0  0  0  0  0  0  0
    0.0578   -4.2385   -3.1728 H   0  0  0  0  0  0  0  0  0  0  0  0
   -0.9165   -2.6372    0.6278 H   0  0  0  0  0  0  0  0  0  0  0  0
   -3.1045   -0.6509    2.9250 H   0  0  0  0  0  0  0  0  0  0  0  0
    3.6931   -2.0996    2.2211 H   0  0  0  0  0  0  0  0  0  0  0  0
    3.9061    1.7495    3.5723 H   0  0  0  0  0  0  0  0  0  0  0  0
    1.2679    1.3520    3.0492 H   0  0  0  0  0  0  0  0  0  0  0  0
  1  2  2  0  0  0  0
  2  3  4  0  0  0  0
  3  4  4  0  0  0  0
  4  5  2  0  0  0  0
  5  6  4  0  0  0  0
  6  7  2  0  0  0  0
  3  8  4  0  0  0  0
  7  8  4  0  0  0  0
  8  9  4  0  0  0  0
  1 10  4  0  0  0  0
  9 10  2  0  0  0  0
 10 11  1  0  0  0  0
 11 12  1  0  0  0  0
 12 13  1  0  0  0  0
 13 14  2  0  0  0  0
 14 15  4  0  0  0  0
 15 16  4  0  0  0  0
 16 17  2  0  0  0  0
 17 18  4  0  0  0  0
 18 19  2  0  0  0  0
 15 20  4  0  0  0  0
 19 20  4  0  0  0  0
 20 21  4  0  0  0  0
 13 22  4  0  0  0  0
 21 22  2  0  0  0  0
 12 23  1  0  0  0  0
 23 24  1  0  0  0  0
 24 25  1  0  0  0  0
 25 26  2  0  0  0  0
 26 27  1  0  0  0  0
 27 28  1  0  0  0  0
 25 29  4  0  0  0  0
 28 29  2  0  0  0  0
 24 30  2  0  0  0  0
 23 31  1  0  0  0  0
 31 32  1  0  0  0  0
 32 33  1  0  0  0  0
 32 34  2  0  0  0  0
 11 35  1  0  0  0  0
 31 35  1  0  0  0  0
 35 36  1  0  0  0  0
 36 37  1  0  0  0  0
 37 38  2  0  0  0  0
 38 39  1  0  0  0  0
 39 40  1  0  0  0  0
 37 41  4  0  0  0  0
 40 41  2  0  0  0  0
 36 42  2  0  0  0  0
  1 43  1  0  0  0  0
  2 44  1  0  0  0  0
  4 45  1  0  0  0  0
  5 46  1  0  0  0  0
  6 47  1  0  0  0  0
  7 48  1  0  0  0  0
  9 49  1  0  0  0  0
 11 50  1  0  0  0  0
 12 51  1  0  0  0  0
 14 52  1  0  0  0  0
 16 53  1  0  0  0  0
 17 54  1  0  0  0  0
 18 55  1  0  0  0  0
 19 56  1  0  0  0  0
 21 57  1  0  0  0  0
 22 58  1  0  0  0  0
 26 59  1  0  0  0  0
 28 60  1  0  0  0  0
 29 61  1  0  0  0  0
 31 62  1  0  0  0  0
 33 63  1  0  0  0  0
 38 64  1  0  0  0  0
 40 65  1  0  0  0  0
 41 66  1  0  0  0  0
M  END
