84

C      3.208385   -3.335216    1.992612
C      2.958776   -2.857261    3.273946
C      2.218155   -1.697389    3.446625
C      1.733482   -1.007237    2.333000
C      1.989128   -1.437528    1.012739
C      2.727350   -2.650730    0.867654
C      3.000332   -3.166661   -0.404347
C      2.566261   -2.505538   -1.542799
C      1.878529   -1.301338   -1.422606
C      1.592582   -0.728517   -0.160882
C      0.888072    0.624121   -0.191797
C     -0.635836    0.565634    0.162926
C     -1.476148   -0.117821   -0.905999
C     -1.395677    0.336391   -2.239821
C     -2.102601   -0.288670   -3.258083
C     -2.915548   -1.374860   -2.966544
C     -3.041114   -1.852557   -1.654991
C     -2.325189   -1.236827   -0.596037
C     -2.526663   -1.784994    0.706617
C     -3.374365   -2.871902    0.946438
C     -4.052655   -3.459040   -0.109555
C     -3.884411   -2.951534   -1.398503
N     -0.906165    1.976770    0.496781
C     -2.015415    2.791706    0.392421
C     -3.265619    2.293849   -0.196928
C     -3.593607    2.711268   -1.491235
C     -4.787927    2.286167   -2.074192
C     -5.655163    1.465741   -1.352391
C     -5.360015    1.082674   -0.033145
C     -6.374143    0.283850    0.759342
C     -7.597223    1.126077    1.113269
C     -4.146427    1.504792    0.546924
O     -2.000916    3.979451    0.716557
C      0.290068    2.548034    1.117613
C      0.152182    2.597518    2.677688
O      1.231767    2.166858    3.364283
O     -0.808358    2.990770    3.321878
N      1.405156    1.716700    0.650963
C      2.632701    2.356565    0.535834
C      3.678637    1.776499   -0.328973
C      4.454133    0.702669    0.110959
C      5.425116    0.141598   -0.733396
C      6.214659   -1.062427   -0.301747
C      7.553650   -0.689500    0.308110
C      5.647273    0.720018   -1.988529
C      4.914422    1.831038   -2.401687
C      3.925614    2.363576   -1.572615
O      2.874414    3.440071    1.063667
H      3.799325   -4.243103    1.877175
H      3.337899   -3.392530    4.137094
H      2.016746   -1.315542    4.445795
H      1.160646   -0.111738    2.533654
H      3.560938   -4.092305   -0.521977
H      2.782050   -2.916345   -2.526951
H      1.586618   -0.796357   -2.341602
H      1.000341    1.032737   -1.202582
H     -0.730085    0.051805    1.119146
H     -0.798359    1.209579   -2.500165
H     -2.037273    0.082307   -4.278753
H     -3.465404   -1.843379   -3.779211
H     -2.032916   -1.376307    1.581804
H     -3.499584   -3.250122    1.959907
H     -4.720234   -4.291730    0.065566
H     -4.435900   -3.420212   -2.211884
H     -2.925007    3.368258   -2.041846
H     -5.043700    2.601544   -3.082104
H     -6.593916    1.153713   -1.816251
H     -6.680182   -0.599943    0.186715
H     -5.912479   -0.096014    1.684696
H     -8.356823    0.539831    1.656374
H     -8.071116    1.547358    0.207826
H     -7.308372    1.972393    1.751769
H     -3.899675    1.250172    1.576094
H      0.427423    3.580239    0.777555
H      1.020597    2.386821    4.295554
H      4.281018    0.285657    1.097604
H      5.636003   -1.640914    0.428126
H      6.377788   -1.725840   -1.163046
H      8.093239   -1.599299    0.589666
H      8.178809   -0.125529   -0.393146
H      7.424967   -0.072375    1.201388
H      6.406372    0.305641   -2.651073
H      5.125269    2.291466   -3.366378
H      3.375319    3.247200   -1.888581
