
  xtb     03162221403D
 xtb: 6.3.3 (4ae9cef)
 80 86  0     0  0            999 V2000
    4.6660   -2.3820   -0.1657 C   0  0  0  0  0  0  0  0  0  0  0  0
    4.4809   -2.9578   -1.3893 C   0  0  0  0  0  0  0  0  0  0  0  0
    3.2561   -2.7997   -2.0531 C   0  0  0  0  0  0  0  0  0  0  0  0
    2.2559   -2.0496   -1.5012 C   0  0  0  0  0  0  0  0  0  0  0  0
    2.4168   -1.4211   -0.2466 C   0  0  0  0  0  0  0  0  0  0  0  0
    3.6455   -1.6207    0.4419 C   0  0  0  0  0  0  0  0  0  0  0  0
    3.8291   -1.0659    1.7244 C   0  0  0  0  0  0  0  0  0  0  0  0
    2.8340   -0.3439    2.3183 C   0  0  0  0  0  0  0  0  0  0  0  0
    1.6376   -0.1087    1.6323 C   0  0  0  0  0  0  0  0  0  0  0  0
    1.4285   -0.6055    0.3682 C   0  0  0  0  0  0  0  0  0  0  0  0
    0.1411   -0.2261   -0.3243 C   0  0  0  0  0  0  0  0  0  0  0  0
   -1.1127   -0.7556    0.4170 C   0  0  0  0  0  0  0  0  0  0  0  0
   -1.9417   -1.6542   -0.4741 C   0  0  0  0  0  0  0  0  0  0  0  0
   -3.0905   -1.1919   -1.0609 C   0  0  0  0  0  0  0  0  0  0  0  0
   -3.8545   -2.0027   -1.9116 C   0  0  0  0  0  0  0  0  0  0  0  0
   -3.4529   -3.2774   -2.1860 C   0  0  0  0  0  0  0  0  0  0  0  0
   -2.2744   -3.7955   -1.6096 C   0  0  0  0  0  0  0  0  0  0  0  0
   -1.5056   -2.9831   -0.7316 C   0  0  0  0  0  0  0  0  0  0  0  0
   -0.3416   -3.5415   -0.1593 C   0  0  0  0  0  0  0  0  0  0  0  0
    0.0508   -4.8170   -0.4569 C   0  0  0  0  0  0  0  0  0  0  0  0
   -0.7021   -5.6096   -1.3345 C   0  0  0  0  0  0  0  0  0  0  0  0
   -1.8441   -5.1090   -1.8917 C   0  0  0  0  0  0  0  0  0  0  0  0
   -1.8333    0.4337    0.8404 N   0  0  0  0  0  0  0  0  0  0  0  0
   -2.6041    0.3624    1.9678 C   0  0  0  0  0  0  0  0  0  0  0  0
   -3.3815    1.5819    2.3011 C   0  0  0  0  0  0  0  0  0  0  0  0
   -4.1966    2.2045    1.3660 C   0  0  0  0  0  0  0  0  0  0  0  0
   -4.9331    3.3243    1.7010 C   0  0  0  0  0  0  0  0  0  0  0  0
   -4.8580    3.8457    2.9891 C   0  0  0  0  0  0  0  0  0  0  0  0
   -5.5119    4.9541    3.4179 O   0  0  0  0  0  0  0  0  0  0  0  0
   -6.2596    5.6984    2.4852 C   0  0  0  0  0  0  0  0  0  0  0  0
   -4.0692    3.1967    3.9427 C   0  0  0  0  0  0  0  0  0  0  0  0
   -3.3518    2.0726    3.6049 C   0  0  0  0  0  0  0  0  0  0  0  0
   -2.6641   -0.6616    2.6183 O   0  0  0  0  0  0  0  0  0  0  0  0
   -1.3562    1.6109    0.1612 C   0  0  0  0  0  0  0  0  0  0  0  0
   -1.2460    2.8601    1.0643 C   0  0  0  0  0  0  0  0  0  0  0  0
   -0.5099    2.6034    2.1512 O   0  0  0  0  0  0  0  0  0  0  0  0
   -1.8633    3.8713    0.8893 O   0  0  0  0  0  0  0  0  0  0  0  0
   -0.0452    1.2177   -0.3243 N   0  0  0  0  0  0  0  0  0  0  0  0
    0.9102    2.1661   -0.4462 C   0  0  0  0  0  0  0  0  0  0  0  0
    2.2310    1.7186   -0.9582 C   0  0  0  0  0  0  0  0  0  0  0  0
    2.3588    1.0904   -2.1878 C   0  0  0  0  0  0  0  0  0  0  0  0
    3.5954    0.6665   -2.6404 C   0  0  0  0  0  0  0  0  0  0  0  0
    4.7260    0.8561   -1.8524 C   0  0  0  0  0  0  0  0  0  0  0  0
    5.9768    0.4398   -2.1738 O   0  0  0  0  0  0  0  0  0  0  0  0
    6.1634   -0.2723   -3.3741 C   0  0  0  0  0  0  0  0  0  0  0  0
    4.6026    1.5301   -0.6347 C   0  0  0  0  0  0  0  0  0  0  0  0
    3.3735    1.9699   -0.2022 C   0  0  0  0  0  0  0  0  0  0  0  0
    0.6643    3.3245   -0.1493 O   0  0  0  0  0  0  0  0  0  0  0  0
    5.5990   -2.5061    0.3645 H   0  0  0  0  0  0  0  0  0  0  0  0
    5.2651   -3.5450   -1.8449 H   0  0  0  0  0  0  0  0  0  0  0  0
    3.1041   -3.2781   -3.0100 H   0  0  0  0  0  0  0  0  0  0  0  0
    1.3232   -1.9626   -2.0360 H   0  0  0  0  0  0  0  0  0  0  0  0
    4.7691   -1.2317    2.2300 H   0  0  0  0  0  0  0  0  0  0  0  0
    2.9644    0.0641    3.3091 H   0  0  0  0  0  0  0  0  0  0  0  0
    0.8776    0.5011    2.0994 H   0  0  0  0  0  0  0  0  0  0  0  0
    0.1246   -0.5862   -1.3575 H   0  0  0  0  0  0  0  0  0  0  0  0
   -0.8428   -1.3077    1.3250 H   0  0  0  0  0  0  0  0  0  0  0  0
   -3.4296   -0.1870   -0.8608 H   0  0  0  0  0  0  0  0  0  0  0  0
   -4.7588   -1.6046   -2.3474 H   0  0  0  0  0  0  0  0  0  0  0  0
   -4.0299   -3.9094   -2.8455 H   0  0  0  0  0  0  0  0  0  0  0  0
    0.2525   -2.9595    0.5263 H   0  0  0  0  0  0  0  0  0  0  0  0
    0.9479   -5.2204   -0.0108 H   0  0  0  0  0  0  0  0  0  0  0  0
   -0.3776   -6.6153   -1.5576 H   0  0  0  0  0  0  0  0  0  0  0  0
   -2.4406   -5.7128   -2.5608 H   0  0  0  0  0  0  0  0  0  0  0  0
   -4.2696    1.8113    0.3630 H   0  0  0  0  0  0  0  0  0  0  0  0
   -5.5515    3.7864    0.9488 H   0  0  0  0  0  0  0  0  0  0  0  0
   -6.6357    6.5617    3.0317 H   0  0  0  0  0  0  0  0  0  0  0  0
   -7.1051    5.1219    2.0961 H   0  0  0  0  0  0  0  0  0  0  0  0
   -5.6345    6.0379    1.6540 H   0  0  0  0  0  0  0  0  0  0  0  0
   -4.0381    3.6016    4.9419 H   0  0  0  0  0  0  0  0  0  0  0  0
   -2.7434    1.5681    4.3402 H   0  0  0  0  0  0  0  0  0  0  0  0
   -1.9986    1.8897   -0.6942 H   0  0  0  0  0  0  0  0  0  0  0  0
   -0.4393    3.4048    2.6920 H   0  0  0  0  0  0  0  0  0  0  0  0
    1.4884    0.9390   -2.8091 H   0  0  0  0  0  0  0  0  0  0  0  0
    3.6622    0.1825   -3.6015 H   0  0  0  0  0  0  0  0  0  0  0  0
    7.2214   -0.5278   -3.4024 H   0  0  0  0  0  0  0  0  0  0  0  0
    5.5661   -1.1892   -3.3884 H   0  0  0  0  0  0  0  0  0  0  0  0
    5.9172    0.3403   -4.2471 H   0  0  0  0  0  0  0  0  0  0  0  0
    5.4920    1.6932   -0.0477 H   0  0  0  0  0  0  0  0  0  0  0  0
    3.2798    2.4926    0.7370 H   0  0  0  0  0  0  0  0  0  0  0  0
  1  2  2  0  0  0  0
  2  3  4  0  0  0  0
  3  4  2  0  0  0  0
  4  5  4  0  0  0  0
  1  6  4  0  0  0  0
  5  6  4  0  0  0  0
  6  7  4  0  0  0  0
  7  8  2  0  0  0  0
  8  9  4  0  0  0  0
  5 10  4  0  0  0  0
  9 10  2  0  0  0  0
 10 11  1  0  0  0  0
 11 12  1  0  0  0  0
 12 13  1  0  0  0  0
 13 14  2  0  0  0  0
 14 15  4  0  0  0  0
 15 16  2  0  0  0  0
 16 17  4  0  0  0  0
 13 18  4  0  0  0  0
 17 18  4  0  0  0  0
 18 19  4  0  0  0  0
 19 20  2  0  0  0  0
 20 21  4  0  0  0  0
 17 22  4  0  0  0  0
 21 22  2  0  0  0  0
 12 23  1  0  0  0  0
 23 24  1  0  0  0  0
 24 25  1  0  0  0  0
 25 26  4  0  0  0  0
 26 27  4  0  0  0  0
 27 28  4  0  0  0  0
 28 29  1  0  0  0  0
 29 30  1  0  0  0  0
 28 31  4  0  0  0  0
 25 32  4  0  0  0  0
 31 32  4  0  0  0  0
 24 33  2  0  0  0  0
 23 34  1  0  0  0  0
 34 35  1  0  0  0  0
 35 36  1  0  0  0  0
 35 37  2  0  0  0  0
 11 38  1  0  0  0  0
 34 38  1  0  0  0  0
 38 39  4  0  0  0  0
 39 40  1  0  0  0  0
 40 41  4  0  0  0  0
 41 42  4  0  0  0  0
 42 43  4  0  0  0  0
 43 44  1  0  0  0  0
 44 45  1  0  0  0  0
 43 46  4  0  0  0  0
 40 47  4  0  0  0  0
 46 47  4  0  0  0  0
 39 48  2  0  0  0  0
  1 49  1  0  0  0  0
  2 50  1  0  0  0  0
  3 51  1  0  0  0  0
  4 52  1  0  0  0  0
  7 53  1  0  0  0  0
  8 54  1  0  0  0  0
  9 55  1  0  0  0  0
 11 56  1  0  0  0  0
 12 57  1  0  0  0  0
 14 58  1  0  0  0  0
 15 59  1  0  0  0  0
 16 60  1  0  0  0  0
 19 61  1  0  0  0  0
 20 62  1  0  0  0  0
 21 63  1  0  0  0  0
 22 64  1  0  0  0  0
 26 65  1  0  0  0  0
 27 66  1  0  0  0  0
 30 67  1  0  0  0  0
 30 68  1  0  0  0  0
 30 69  1  0  0  0  0
 31 70  1  0  0  0  0
 32 71  1  0  0  0  0
 34 72  1  0  0  0  0
 36 73  1  0  0  0  0
 41 74  1  0  0  0  0
 42 75  1  0  0  0  0
 45 76  1  0  0  0  0
 45 77  1  0  0  0  0
 45 78  1  0  0  0  0
 46 79  1  0  0  0  0
 47 80  1  0  0  0  0
M  END
