
  xtb     03162223173D
 xtb: 6.3.3 (4ae9cef)
 54 58  0     0  0            999 V2000
   -0.8821    0.8882   -2.8055 C   0  0  0  0  0  0  0  0  0  0  0  0
   -0.9598    1.1921   -4.1549 C   0  0  0  0  0  0  0  0  0  0  0  0
   -0.0292    2.0337   -4.7376 C   0  0  0  0  0  0  0  0  0  0  0  0
    0.9850    2.5742   -3.9645 C   0  0  0  0  0  0  0  0  0  0  0  0
    1.0638    2.2752   -2.6169 C   0  0  0  0  0  0  0  0  0  0  0  0
    0.1298    1.4309   -2.0242 C   0  0  0  0  0  0  0  0  0  0  0  0
    0.3182    1.0899   -0.5622 C   0  0  0  0  0  0  0  0  0  0  0  0
   -0.9296    0.5478    0.1639 C   0  0  0  0  0  0  0  0  0  0  0  0
   -0.9572    1.0239    1.5981 C   0  0  0  0  0  0  0  0  0  0  0  0
   -1.7375    2.1201    1.9417 C   0  0  0  0  0  0  0  0  0  0  0  0
   -1.7669    2.5782    3.2462 C   0  0  0  0  0  0  0  0  0  0  0  0
   -1.0139    1.9456    4.2207 C   0  0  0  0  0  0  0  0  0  0  0  0
   -0.2266    0.8587    3.8825 C   0  0  0  0  0  0  0  0  0  0  0  0
   -0.1955    0.4006    2.5773 C   0  0  0  0  0  0  0  0  0  0  0  0
   -0.7684   -0.8945    0.0625 N   0  0  0  0  0  0  0  0  0  0  0  0
   -1.4453   -1.8565    0.7505 C   0  0  0  0  0  0  0  0  0  0  0  0
   -2.7371   -1.4940    1.3423 C   0  0  0  0  0  0  0  0  0  0  0  0
   -3.4746   -2.2405    2.2284 C   0  0  0  0  0  0  0  0  0  0  0  0
   -4.6357   -1.4916    2.5059 C   0  0  0  0  0  0  0  0  0  0  0  0
   -4.5267   -0.3514    1.7671 C   0  0  0  0  0  0  0  0  0  0  0  0
   -3.3895   -0.3424    1.0632 O   0  0  0  0  0  0  0  0  0  0  0  0
   -0.9946   -2.9835    0.8645 O   0  0  0  0  0  0  0  0  0  0  0  0
    0.5242   -1.2363   -0.4935 C   0  0  0  0  0  0  0  0  0  0  0  0
    0.3710   -1.7608   -1.9339 C   0  0  0  0  0  0  0  0  0  0  0  0
    1.5147   -1.6538   -2.6078 O   0  0  0  0  0  0  0  0  0  0  0  0
   -0.6341   -2.2227   -2.3888 O   0  0  0  0  0  0  0  0  0  0  0  0
    1.2662   -0.0129   -0.4338 N   0  0  0  0  0  0  0  0  0  0  0  0
    2.5932    0.2175   -0.2627 C   0  0  0  0  0  0  0  0  0  0  0  0
    3.5023   -0.9281   -0.1491 C   0  0  0  0  0  0  0  0  0  0  0  0
    4.8632   -0.8633    0.0320 C   0  0  0  0  0  0  0  0  0  0  0  0
    5.3240   -2.1944    0.0647 C   0  0  0  0  0  0  0  0  0  0  0  0
    4.2181   -2.9739   -0.1019 C   0  0  0  0  0  0  0  0  0  0  0  0
    3.1177   -2.2239   -0.2288 O   0  0  0  0  0  0  0  0  0  0  0  0
    3.0273    1.3561   -0.2018 O   0  0  0  0  0  0  0  0  0  0  0  0
   -1.6138    0.2174   -2.3819 H   0  0  0  0  0  0  0  0  0  0  0  0
   -1.7513    0.7621   -4.7507 H   0  0  0  0  0  0  0  0  0  0  0  0
   -0.0932    2.2666   -5.7903 H   0  0  0  0  0  0  0  0  0  0  0  0
    1.7169    3.2300   -4.4119 H   0  0  0  0  0  0  0  0  0  0  0  0
    1.8608    2.6828   -2.0136 H   0  0  0  0  0  0  0  0  0  0  0  0
    0.7421    1.9553   -0.0421 H   0  0  0  0  0  0  0  0  0  0  0  0
   -1.8435    0.8746   -0.3400 H   0  0  0  0  0  0  0  0  0  0  0  0
   -2.3279    2.6111    1.1815 H   0  0  0  0  0  0  0  0  0  0  0  0
   -2.3818    3.4280    3.5033 H   0  0  0  0  0  0  0  0  0  0  0  0
   -1.0405    2.2989    5.2406 H   0  0  0  0  0  0  0  0  0  0  0  0
    0.3661    0.3633    4.6368 H   0  0  0  0  0  0  0  0  0  0  0  0
    0.4197   -0.4512    2.3272 H   0  0  0  0  0  0  0  0  0  0  0  0
   -3.2004   -3.1992    2.6163 H   0  0  0  0  0  0  0  0  0  0  0  0
   -5.4392   -1.7623    3.1591 H   0  0  0  0  0  0  0  0  0  0  0  0
   -5.1741    0.4970    1.6615 H   0  0  0  0  0  0  0  0  0  0  0  0
    0.9720   -2.0526    0.0913 H   0  0  0  0  0  0  0  0  0  0  0  0
    1.4146   -2.0002   -3.5093 H   0  0  0  0  0  0  0  0  0  0  0  0
    5.4362    0.0350    0.1286 H   0  0  0  0  0  0  0  0  0  0  0  0
    6.3336   -2.5267    0.1909 H   0  0  0  0  0  0  0  0  0  0  0  0
    4.0895   -4.0379   -0.1403 H   0  0  0  0  0  0  0  0  0  0  0  0
  1  2  4  0  0  0  0
  2  3  4  0  0  0  0
  3  4  4  0  0  0  0
  4  5  4  0  0  0  0
  1  6  4  0  0  0  0
  5  6  4  0  0  0  0
  6  7  1  0  0  0  0
  7  8  1  0  0  0  0
  8  9  1  0  0  0  0
  9 10  4  0  0  0  0
 10 11  4  0  0  0  0
 11 12  4  0  0  0  0
 12 13  4  0  0  0  0
  9 14  4  0  0  0  0
 13 14  4  0  0  0  0
  8 15  1  0  0  0  0
 15 16  1  0  0  0  0
 16 17  1  0  0  0  0
 17 18  2  0  0  0  0
 18 19  4  0  0  0  0
 19 20  2  0  0  0  0
 17 21  1  0  0  0  0
 20 21  1  0  0  0  0
 16 22  2  0  0  0  0
 15 23  1  0  0  0  0
 23 24  1  0  0  0  0
 24 25  1  0  0  0  0
 24 26  2  0  0  0  0
  7 27  1  0  0  0  0
 23 27  1  0  0  0  0
 27 28  4  0  0  0  0
 28 29  1  0  0  0  0
 29 30  2  0  0  0  0
 30 31  4  0  0  0  0
 31 32  2  0  0  0  0
 29 33  1  0  0  0  0
 32 33  1  0  0  0  0
 28 34  2  0  0  0  0
  1 35  1  0  0  0  0
  2 36  1  0  0  0  0
  3 37  1  0  0  0  0
  4 38  1  0  0  0  0
  5 39  1  0  0  0  0
  7 40  1  0  0  0  0
  8 41  1  0  0  0  0
 10 42  1  0  0  0  0
 11 43  1  0  0  0  0
 12 44  1  0  0  0  0
 13 45  1  0  0  0  0
 14 46  1  0  0  0  0
 18 47  1  0  0  0  0
 19 48  1  0  0  0  0
 20 49  1  0  0  0  0
 23 50  1  0  0  0  0
 25 51  1  0  0  0  0
 30 52  1  0  0  0  0
 31 53  1  0  0  0  0
 32 54  1  0  0  0  0
M  END
