
  xtb     03162222313D
 xtb: 6.3.3 (4ae9cef)
 68 72  0     0  0            999 V2000
   -2.4727   -0.0741    0.4363 C   0  0  0  0  0  0  0  0  0  0  0  0
   -1.9749   -1.1246    1.1328 O   0  0  0  0  0  0  0  0  0  0  0  0
   -2.7356   -1.7202    2.1562 C   0  0  0  0  0  0  0  0  0  0  0  0
   -3.7111    0.5151    0.6593 C   0  0  0  0  0  0  0  0  0  0  0  0
   -4.1125    1.6012   -0.1002 C   0  0  0  0  0  0  0  0  0  0  0  0
   -3.2845    2.1204   -1.0771 C   0  0  0  0  0  0  0  0  0  0  0  0
   -2.0555    1.5277   -1.3125 C   0  0  0  0  0  0  0  0  0  0  0  0
   -1.6455    0.4233   -0.5856 C   0  0  0  0  0  0  0  0  0  0  0  0
   -0.3029   -0.2002   -0.8448 C   0  0  0  0  0  0  0  0  0  0  0  0
    0.6625    0.0936    0.3314 C   0  0  0  0  0  0  0  0  0  0  0  0
    1.3974    1.3928    0.1433 C   0  0  0  0  0  0  0  0  0  0  0  0
    1.0994    2.4790    0.9485 C   0  0  0  0  0  0  0  0  0  0  0  0
    1.7730    3.6799    0.8090 C   0  0  0  0  0  0  0  0  0  0  0  0
    2.7605    3.7962   -0.1504 C   0  0  0  0  0  0  0  0  0  0  0  0
    3.0644    2.7286   -0.9778 C   0  0  0  0  0  0  0  0  0  0  0  0
    2.3834    1.5239   -0.8486 C   0  0  0  0  0  0  0  0  0  0  0  0
    2.6078    0.4278   -1.6257 O   0  0  0  0  0  0  0  0  0  0  0  0
    3.6712    0.4552   -2.5494 C   0  0  0  0  0  0  0  0  0  0  0  0
    1.5213   -1.0736    0.3538 N   0  0  0  0  0  0  0  0  0  0  0  0
    2.6170   -1.2693    1.1179 C   0  0  0  0  0  0  0  0  0  0  0  0
    2.9650   -0.1084    1.9997 C   0  0  0  0  0  0  0  0  0  0  0  0
    2.2255    0.1390    3.1485 C   0  0  0  0  0  0  0  0  0  0  0  0
    2.5433    1.2204    3.9513 C   0  0  0  0  0  0  0  0  0  0  0  0
    3.5815    2.0688    3.6056 C   0  0  0  0  0  0  0  0  0  0  0  0
    4.3200    1.7978    2.4691 C   0  0  0  0  0  0  0  0  0  0  0  0
    5.8884    3.0976    1.9118 I   0  0  0  0  0  0  0  0  0  0  0  0
    4.0400    0.7054    1.6736 C   0  0  0  0  0  0  0  0  0  0  0  0
    3.2623   -2.2968    1.0806 O   0  0  0  0  0  0  0  0  0  0  0  0
    0.9886   -2.1569   -0.4383 C   0  0  0  0  0  0  0  0  0  0  0  0
    0.7859   -3.4029    0.4547 C   0  0  0  0  0  0  0  0  0  0  0  0
    1.4255   -4.4535   -0.0285 O   0  0  0  0  0  0  0  0  0  0  0  0
    0.2296   -3.3603    1.5188 O   0  0  0  0  0  0  0  0  0  0  0  0
   -0.2657   -1.6510   -0.9538 N   0  0  0  0  0  0  0  0  0  0  0  0
   -1.2463   -2.5525   -1.1792 C   0  0  0  0  0  0  0  0  0  0  0  0
   -2.5371   -2.0716   -1.7410 C   0  0  0  0  0  0  0  0  0  0  0  0
   -2.5935   -1.1329   -2.7631 C   0  0  0  0  0  0  0  0  0  0  0  0
   -3.8266   -0.7137   -3.2203 C   0  0  0  0  0  0  0  0  0  0  0  0
   -3.9092    0.7722   -4.7195 I   0  0  0  0  0  0  0  0  0  0  0  0
   -5.0027   -1.2223   -2.7004 C   0  0  0  0  0  0  0  0  0  0  0  0
   -4.9373   -2.1954   -1.7175 C   0  0  0  0  0  0  0  0  0  0  0  0
   -3.7116   -2.6251   -1.2435 C   0  0  0  0  0  0  0  0  0  0  0  0
   -1.0569   -3.7390   -0.9617 O   0  0  0  0  0  0  0  0  0  0  0  0
   -2.9190   -1.0197    2.9775 H   0  0  0  0  0  0  0  0  0  0  0  0
   -3.6905   -2.0983    1.7794 H   0  0  0  0  0  0  0  0  0  0  0  0
   -2.1225   -2.5496    2.5056 H   0  0  0  0  0  0  0  0  0  0  0  0
   -4.3655    0.1330    1.4266 H   0  0  0  0  0  0  0  0  0  0  0  0
   -5.0793    2.0450    0.0834 H   0  0  0  0  0  0  0  0  0  0  0  0
   -3.5927    2.9740   -1.6597 H   0  0  0  0  0  0  0  0  0  0  0  0
   -1.4071    1.9239   -2.0805 H   0  0  0  0  0  0  0  0  0  0  0  0
    0.1289    0.2265   -1.7606 H   0  0  0  0  0  0  0  0  0  0  0  0
    0.0839    0.1404    1.2625 H   0  0  0  0  0  0  0  0  0  0  0  0
    0.3328    2.3747    1.7024 H   0  0  0  0  0  0  0  0  0  0  0  0
    1.5329    4.5134    1.4501 H   0  0  0  0  0  0  0  0  0  0  0  0
    3.3062    4.7206   -0.2614 H   0  0  0  0  0  0  0  0  0  0  0  0
    3.8377    2.8458   -1.7199 H   0  0  0  0  0  0  0  0  0  0  0  0
    4.6275    0.6549   -2.0574 H   0  0  0  0  0  0  0  0  0  0  0  0
    3.5035    1.1987   -3.3350 H   0  0  0  0  0  0  0  0  0  0  0  0
    3.6985   -0.5386   -2.9931 H   0  0  0  0  0  0  0  0  0  0  0  0
    1.4121   -0.5210    3.4107 H   0  0  0  0  0  0  0  0  0  0  0  0
    1.9755    1.4147    4.8489 H   0  0  0  0  0  0  0  0  0  0  0  0
    3.8135    2.9253    4.2196 H   0  0  0  0  0  0  0  0  0  0  0  0
    4.6336    0.4850    0.8000 H   0  0  0  0  0  0  0  0  0  0  0  0
    1.6767   -2.4289   -1.2539 H   0  0  0  0  0  0  0  0  0  0  0  0
    1.3184   -5.2179    0.5583 H   0  0  0  0  0  0  0  0  0  0  0  0
   -1.6858   -0.7461   -3.1982 H   0  0  0  0  0  0  0  0  0  0  0  0
   -5.9578   -0.8750   -3.0632 H   0  0  0  0  0  0  0  0  0  0  0  0
   -5.8503   -2.6148   -1.3226 H   0  0  0  0  0  0  0  0  0  0  0  0
   -3.6426   -3.3876   -0.4830 H   0  0  0  0  0  0  0  0  0  0  0  0
  1  2  1  0  0  0  0
  2  3  1  0  0  0  0
  1  4  4  0  0  0  0
  4  5  4  0  0  0  0
  5  6  4  0  0  0  0
  6  7  4  0  0  0  0
  1  8  4  0  0  0  0
  7  8  4  0  0  0  0
  8  9  1  0  0  0  0
  9 10  1  0  0  0  0
 10 11  1  0  0  0  0
 11 12  4  0  0  0  0
 12 13  4  0  0  0  0
 13 14  4  0  0  0  0
 14 15  4  0  0  0  0
 11 16  4  0  0  0  0
 15 16  4  0  0  0  0
 16 17  1  0  0  0  0
 17 18  1  0  0  0  0
 10 19  1  0  0  0  0
 19 20  4  0  0  0  0
 20 21  1  0  0  0  0
 21 22  4  0  0  0  0
 22 23  4  0  0  0  0
 23 24  4  0  0  0  0
 24 25  4  0  0  0  0
 25 26  1  0  0  0  0
 21 27  4  0  0  0  0
 25 27  4  0  0  0  0
 20 28  2  0  0  0  0
 19 29  1  0  0  0  0
 29 30  1  0  0  0  0
 30 31  1  0  0  0  0
 30 32  2  0  0  0  0
  9 33  1  0  0  0  0
 29 33  1  0  0  0  0
 33 34  4  0  0  0  0
 34 35  1  0  0  0  0
 35 36  4  0  0  0  0
 36 37  4  0  0  0  0
 37 38  1  0  0  0  0
 37 39  4  0  0  0  0
 39 40  4  0  0  0  0
 35 41  4  0  0  0  0
 40 41  4  0  0  0  0
 34 42  2  0  0  0  0
  3 43  1  0  0  0  0
  3 44  1  0  0  0  0
  3 45  1  0  0  0  0
  4 46  1  0  0  0  0
  5 47  1  0  0  0  0
  6 48  1  0  0  0  0
  7 49  1  0  0  0  0
  9 50  1  0  0  0  0
 10 51  1  0  0  0  0
 12 52  1  0  0  0  0
 13 53  1  0  0  0  0
 14 54  1  0  0  0  0
 15 55  1  0  0  0  0
 18 56  1  0  0  0  0
 18 57  1  0  0  0  0
 18 58  1  0  0  0  0
 22 59  1  0  0  0  0
 23 60  1  0  0  0  0
 24 61  1  0  0  0  0
 27 62  1  0  0  0  0
 29 63  1  0  0  0  0
 31 64  1  0  0  0  0
 36 65  1  0  0  0  0
 39 66  1  0  0  0  0
 40 67  1  0  0  0  0
 41 68  1  0  0  0  0
M  END
