
  xtb     03172202163D
 xtb: 6.3.3 (4ae9cef)
 84 90  0     0  0            999 V2000
   -0.0090   -0.4565    3.6914 C   0  0  0  0  0  0  0  0  0  0  0  0
   -0.2076   -0.5437    5.0404 C   0  0  0  0  0  0  0  0  0  0  0  0
   -1.0609    0.3553    5.7112 C   0  0  0  0  0  0  0  0  0  0  0  0
   -1.2796    0.2908    7.1029 C   0  0  0  0  0  0  0  0  0  0  0  0
   -2.1124    1.1830    7.7176 C   0  0  0  0  0  0  0  0  0  0  0  0
   -2.7641    2.1785    6.9712 C   0  0  0  0  0  0  0  0  0  0  0  0
   -2.5748    2.2661    5.6208 C   0  0  0  0  0  0  0  0  0  0  0  0
   -1.7208    1.3605    4.9567 C   0  0  0  0  0  0  0  0  0  0  0  0
   -1.5000    1.4239    3.5674 C   0  0  0  0  0  0  0  0  0  0  0  0
   -0.6591    0.5405    2.9366 C   0  0  0  0  0  0  0  0  0  0  0  0
   -0.5126    0.6433    1.4364 C   0  0  0  0  0  0  0  0  0  0  0  0
    0.8112    0.0943    0.8517 C   0  0  0  0  0  0  0  0  0  0  0  0
    1.3504    0.9831   -0.2434 C   0  0  0  0  0  0  0  0  0  0  0  0
    0.7311    1.0498   -1.4655 C   0  0  0  0  0  0  0  0  0  0  0  0
    1.2746    1.8092   -2.5194 C   0  0  0  0  0  0  0  0  0  0  0  0
    0.6821    1.8451   -3.7989 C   0  0  0  0  0  0  0  0  0  0  0  0
    1.2593    2.5602   -4.8100 C   0  0  0  0  0  0  0  0  0  0  0  0
    2.4473    3.2745   -4.5882 C   0  0  0  0  0  0  0  0  0  0  0  0
    3.0422    3.2641   -3.3577 C   0  0  0  0  0  0  0  0  0  0  0  0
    2.4763    2.5316   -2.2944 C   0  0  0  0  0  0  0  0  0  0  0  0
    3.0715    2.4781   -1.0170 C   0  0  0  0  0  0  0  0  0  0  0  0
    2.5255    1.7245   -0.0178 C   0  0  0  0  0  0  0  0  0  0  0  0
    0.4373   -1.2215    0.3313 N   0  0  0  0  0  0  0  0  0  0  0  0
    1.0731   -1.8882   -0.6723 C   0  0  0  0  0  0  0  0  0  0  0  0
    2.4977   -1.4757   -0.8865 C   0  0  0  0  0  0  0  0  0  0  0  0
    2.8916   -1.0883   -2.1626 C   0  0  0  0  0  0  0  0  0  0  0  0
    4.1778   -0.6198   -2.3694 C   0  0  0  0  0  0  0  0  0  0  0  0
    4.6111   -0.1463   -3.7320 C   0  0  0  0  0  0  0  0  0  0  0  0
    5.4514   -1.0123   -4.3215 F   0  0  0  0  0  0  0  0  0  0  0  0
    3.5887    0.0315   -4.5743 F   0  0  0  0  0  0  0  0  0  0  0  0
    5.2662    1.0244   -3.6672 F   0  0  0  0  0  0  0  0  0  0  0  0
    5.0970   -0.5696   -1.3287 C   0  0  0  0  0  0  0  0  0  0  0  0
    4.7078   -1.0160   -0.0767 C   0  0  0  0  0  0  0  0  0  0  0  0
    5.6554   -0.9664    1.0931 C   0  0  0  0  0  0  0  0  0  0  0  0
    5.1667   -0.1796    2.0728 F   0  0  0  0  0  0  0  0  0  0  0  0
    6.8596   -0.4824    0.7809 F   0  0  0  0  0  0  0  0  0  0  0  0
    5.8476   -2.1722    1.6454 F   0  0  0  0  0  0  0  0  0  0  0  0
    3.4152   -1.4702    0.1530 C   0  0  0  0  0  0  0  0  0  0  0  0
    0.5211   -2.7333   -1.3399 O   0  0  0  0  0  0  0  0  0  0  0  0
   -0.9760   -1.4652    0.5390 C   0  0  0  0  0  0  0  0  0  0  0  0
   -1.2044   -2.4151    1.7501 C   0  0  0  0  0  0  0  0  0  0  0  0
   -2.2836   -2.1238    2.4760 O   0  0  0  0  0  0  0  0  0  0  0  0
   -0.4964   -3.3459    1.9697 O   0  0  0  0  0  0  0  0  0  0  0  0
   -1.5418   -0.1603    0.7605 N   0  0  0  0  0  0  0  0  0  0  0  0
   -2.4730    0.4669   -0.0192 C   0  0  0  0  0  0  0  0  0  0  0  0
   -3.2106   -0.3993   -0.9975 C   0  0  0  0  0  0  0  0  0  0  0  0
   -3.9283   -1.5321   -0.6357 C   0  0  0  0  0  0  0  0  0  0  0  0
   -4.6150   -2.2470   -1.6091 C   0  0  0  0  0  0  0  0  0  0  0  0
   -5.3901   -3.4672   -1.1782 C   0  0  0  0  0  0  0  0  0  0  0  0
   -6.1774   -3.2032   -0.1234 F   0  0  0  0  0  0  0  0  0  0  0  0
   -4.5731   -4.4627   -0.8004 F   0  0  0  0  0  0  0  0  0  0  0  0
   -6.1777   -3.9527   -2.1400 F   0  0  0  0  0  0  0  0  0  0  0  0
   -4.5802   -1.8653   -2.9414 C   0  0  0  0  0  0  0  0  0  0  0  0
   -3.8642   -0.7280   -3.2878 C   0  0  0  0  0  0  0  0  0  0  0  0
   -3.8316   -0.2618   -4.7213 C   0  0  0  0  0  0  0  0  0  0  0  0
   -4.7722    0.6661   -4.9625 F   0  0  0  0  0  0  0  0  0  0  0  0
   -4.0372   -1.2531   -5.5930 F   0  0  0  0  0  0  0  0  0  0  0  0
   -2.6553    0.2995   -5.0372 F   0  0  0  0  0  0  0  0  0  0  0  0
   -3.1995    0.0153   -2.3251 C   0  0  0  0  0  0  0  0  0  0  0  0
   -2.6983    1.6507    0.0757 O   0  0  0  0  0  0  0  0  0  0  0  0
    0.6451   -1.1673    3.2104 H   0  0  0  0  0  0  0  0  0  0  0  0
    0.2913   -1.3128    5.6104 H   0  0  0  0  0  0  0  0  0  0  0  0
   -0.7757   -0.4766    7.6720 H   0  0  0  0  0  0  0  0  0  0  0  0
   -2.2758    1.1304    8.7837 H   0  0  0  0  0  0  0  0  0  0  0  0
   -3.4175    2.8746    7.4757 H   0  0  0  0  0  0  0  0  0  0  0  0
   -3.0735    3.0293    5.0411 H   0  0  0  0  0  0  0  0  0  0  0  0
   -2.0078    2.1866    2.9936 H   0  0  0  0  0  0  0  0  0  0  0  0
   -0.6669    1.6851    1.1352 H   0  0  0  0  0  0  0  0  0  0  0  0
    1.5613    0.0054    1.6428 H   0  0  0  0  0  0  0  0  0  0  0  0
   -0.1715    0.4853   -1.6588 H   0  0  0  0  0  0  0  0  0  0  0  0
   -0.2273    1.2883   -3.9732 H   0  0  0  0  0  0  0  0  0  0  0  0
    0.8055    2.5757   -5.7888 H   0  0  0  0  0  0  0  0  0  0  0  0
    2.8896    3.8307   -5.4005 H   0  0  0  0  0  0  0  0  0  0  0  0
    3.9595    3.8064   -3.1828 H   0  0  0  0  0  0  0  0  0  0  0  0
    3.9800    3.0357   -0.8445 H   0  0  0  0  0  0  0  0  0  0  0  0
    2.9966    1.6790    0.9533 H   0  0  0  0  0  0  0  0  0  0  0  0
    2.1852   -1.1311   -2.9775 H   0  0  0  0  0  0  0  0  0  0  0  0
    6.0938   -0.1907   -1.4954 H   0  0  0  0  0  0  0  0  0  0  0  0
    3.1335   -1.8197    1.1349 H   0  0  0  0  0  0  0  0  0  0  0  0
   -1.3809   -1.9809   -0.3451 H   0  0  0  0  0  0  0  0  0  0  0  0
   -2.6373   -1.2408    2.2747 H   0  0  0  0  0  0  0  0  0  0  0  0
   -3.9836   -1.8584    0.3925 H   0  0  0  0  0  0  0  0  0  0  0  0
   -5.1029   -2.4376   -3.6927 H   0  0  0  0  0  0  0  0  0  0  0  0
   -2.6705    0.9170   -2.5976 H   0  0  0  0  0  0  0  0  0  0  0  0
  1  2  2  0  0  0  0
  2  3  4  0  0  0  0
  3  4  4  0  0  0  0
  4  5  2  0  0  0  0
  5  6  4  0  0  0  0
  6  7  2  0  0  0  0
  3  8  4  0  0  0  0
  7  8  4  0  0  0  0
  8  9  4  0  0  0  0
  1 10  4  0  0  0  0
  9 10  2  0  0  0  0
 10 11  1  0  0  0  0
 11 12  1  0  0  0  0
 12 13  1  0  0  0  0
 13 14  2  0  0  0  0
 14 15  4  0  0  0  0
 15 16  4  0  0  0  0
 16 17  2  0  0  0  0
 17 18  4  0  0  0  0
 18 19  2  0  0  0  0
 15 20  4  0  0  0  0
 19 20  4  0  0  0  0
 20 21  4  0  0  0  0
 13 22  4  0  0  0  0
 21 22  2  0  0  0  0
 12 23  1  0  0  0  0
 23 24  4  0  0  0  0
 24 25  1  0  0  0  0
 25 26  4  0  0  0  0
 26 27  4  0  0  0  0
 27 28  1  0  0  0  0
 28 29  1  0  0  0  0
 28 30  1  0  0  0  0
 28 31  1  0  0  0  0
 27 32  4  0  0  0  0
 32 33  4  0  0  0  0
 33 34  1  0  0  0  0
 34 35  1  0  0  0  0
 34 36  1  0  0  0  0
 34 37  1  0  0  0  0
 25 38  4  0  0  0  0
 33 38  4  0  0  0  0
 24 39  2  0  0  0  0
 23 40  1  0  0  0  0
 40 41  1  0  0  0  0
 41 42  1  0  0  0  0
 41 43  2  0  0  0  0
 11 44  1  0  0  0  0
 40 44  1  0  0  0  0
 44 45  1  0  0  0  0
 45 46  1  0  0  0  0
 46 47  4  0  0  0  0
 47 48  4  0  0  0  0
 48 49  1  0  0  0  0
 49 50  1  0  0  0  0
 49 51  1  0  0  0  0
 49 52  1  0  0  0  0
 48 53  4  0  0  0  0
 53 54  4  0  0  0  0
 54 55  1  0  0  0  0
 55 56  1  0  0  0  0
 55 57  1  0  0  0  0
 55 58  1  0  0  0  0
 46 59  4  0  0  0  0
 54 59  4  0  0  0  0
 45 60  2  0  0  0  0
  1 61  1  0  0  0  0
  2 62  1  0  0  0  0
  4 63  1  0  0  0  0
  5 64  1  0  0  0  0
  6 65  1  0  0  0  0
  7 66  1  0  0  0  0
  9 67  1  0  0  0  0
 11 68  1  0  0  0  0
 12 69  1  0  0  0  0
 14 70  1  0  0  0  0
 16 71  1  0  0  0  0
 17 72  1  0  0  0  0
 18 73  1  0  0  0  0
 19 74  1  0  0  0  0
 21 75  1  0  0  0  0
 22 76  1  0  0  0  0
 26 77  1  0  0  0  0
 32 78  1  0  0  0  0
 38 79  1  0  0  0  0
 40 80  1  0  0  0  0
 42 81  1  0  0  0  0
 47 82  1  0  0  0  0
 53 83  1  0  0  0  0
 59 84  1  0  0  0  0
M  END
