66

O     -2.722915    0.225776   -1.885113
C     -2.076455   -0.385613   -1.044026
C     -2.234731   -1.850695   -0.986996
C     -3.088829   -2.375555   -0.009976
C     -3.239863   -3.756068    0.104580
C     -2.552543   -4.603405   -0.763261
C     -1.721908   -4.074808   -1.756040
C     -1.548966   -2.689269   -1.882706
C     -0.703473   -2.137379   -2.996001
N     -1.192841    0.196641   -0.154184
C     -0.143489   -0.506700    0.568069
C     -0.667487   -0.965113    1.965753
O     -0.795352   -2.310019    2.100527
O     -0.943092   -0.215709    2.893238
N      0.934822    0.461413    0.716926
C      2.152267    0.207663    1.323458
C      2.543737   -1.208126    1.497354
C      3.001711   -1.981130    0.414765
C      3.189370   -1.394473   -0.956803
C      3.291791   -3.334542    0.640453
C      3.160638   -3.888221    1.916563
C      2.744665   -3.097527    2.986792
C      2.441691   -1.753846    2.782427
O      2.923496    1.069180    1.728631
C      0.460408    1.826400    0.467175
C      1.389522    2.634072   -0.429375
C      1.848360    2.135202   -1.660258
C      2.679076    2.904551   -2.475488
C      3.056952    4.183881   -2.076031
C      2.607548    4.694357   -0.860164
C      1.778846    3.925218   -0.041832
C     -0.926091    1.637027   -0.214380
C     -2.050781    2.482365    0.363094
C     -2.874246    3.213536   -0.514126
C     -3.911736    4.015045   -0.032634
C     -4.148267    4.094830    1.336272
C     -3.353470    3.368243    2.220488
C     -2.314522    2.566605    1.737984
H     -3.635353   -1.711820    0.658233
H     -3.902053   -4.169941    0.863239
H     -2.684186   -5.680801   -0.683797
H     -1.227808   -4.757278   -2.445588
H     -0.032298   -1.355244   -2.627563
H     -1.342604   -1.723429   -3.782875
H     -0.076047   -2.917944   -3.441198
H      0.219169   -1.366522    0.001003
H     -0.570318   -2.844096    1.313908
H      3.758591   -0.461138   -0.904840
H      3.750215   -2.075914   -1.607330
H      2.217522   -1.206949   -1.424897
H      3.646176   -3.965821   -0.173617
H      3.404771   -4.935676    2.082253
H      2.662022   -3.525782    3.982251
H      2.116275   -1.137062    3.618812
H      0.387692    2.310585    1.448323
H      1.558463    1.143112   -1.993217
H      3.030670    2.503418   -3.421282
H      3.702253    4.783080   -2.711798
H      2.902764    5.690758   -0.546605
H      1.444991    4.339092    0.908278
H     -0.849227    1.880104   -1.282894
H     -2.720127    3.151448   -1.590715
H     -4.537487    4.569208   -0.730140
H     -4.956794    4.714256    1.715726
H     -3.541345    3.421690    3.290181
H     -1.719770    2.014857    2.460994
