
  xtb     03172201123D
 xtb: 6.3.3 (4ae9cef)
 66 72  0     0  0            999 V2000
    1.1684    3.0217   -0.8519 C   0  0  0  0  0  0  0  0  0  0  0  0
    1.1859    4.3102   -0.3999 C   0  0  0  0  0  0  0  0  0  0  0  0
    0.2929    4.7372    0.6045 C   0  0  0  0  0  0  0  0  0  0  0  0
    0.2698    6.0644    1.0812 C   0  0  0  0  0  0  0  0  0  0  0  0
   -0.6177    6.4418    2.0496 C   0  0  0  0  0  0  0  0  0  0  0  0
   -1.5215    5.5111    2.5874 C   0  0  0  0  0  0  0  0  0  0  0  0
   -1.5221    4.2167    2.1497 C   0  0  0  0  0  0  0  0  0  0  0  0
   -0.6192    3.7970    1.1502 C   0  0  0  0  0  0  0  0  0  0  0  0
   -0.6055    2.4720    0.6736 C   0  0  0  0  0  0  0  0  0  0  0  0
    0.2614    2.0897   -0.3168 C   0  0  0  0  0  0  0  0  0  0  0  0
    0.2572    0.6729   -0.8358 C   0  0  0  0  0  0  0  0  0  0  0  0
    0.8459   -0.3297    0.1713 C   0  0  0  0  0  0  0  0  0  0  0  0
    2.0056   -1.1128   -0.3886 C   0  0  0  0  0  0  0  0  0  0  0  0
    3.2627   -0.9697    0.1336 C   0  0  0  0  0  0  0  0  0  0  0  0
    4.3550   -1.6898   -0.3906 C   0  0  0  0  0  0  0  0  0  0  0  0
    5.6587   -1.5541    0.1304 C   0  0  0  0  0  0  0  0  0  0  0  0
    6.6980   -2.2676   -0.3975 C   0  0  0  0  0  0  0  0  0  0  0  0
    6.4825   -3.1486   -1.4692 C   0  0  0  0  0  0  0  0  0  0  0  0
    5.2304   -3.3029   -1.9955 C   0  0  0  0  0  0  0  0  0  0  0  0
    4.1374   -2.5812   -1.4734 C   0  0  0  0  0  0  0  0  0  0  0  0
    2.8315   -2.7134   -1.9905 C   0  0  0  0  0  0  0  0  0  0  0  0
    1.7953   -1.9967   -1.4657 C   0  0  0  0  0  0  0  0  0  0  0  0
   -0.2684   -1.2135    0.5032 N   0  0  0  0  0  0  0  0  0  0  0  0
   -0.1954   -1.9666    1.6285 C   0  0  0  0  0  0  0  0  0  0  0  0
   -1.3844   -2.8349    1.8936 C   0  0  0  0  0  0  0  0  0  0  0  0
   -1.7932   -3.8698    1.1035 C   0  0  0  0  0  0  0  0  0  0  0  0
   -1.0912   -4.3655   -0.3785 Cl  0  0  0  0  0  0  0  0  0  0  0  0
   -3.1583   -4.7201    1.7638 S   0  0  0  0  0  0  0  0  0  0  0  0
   -3.1569   -3.6506    3.1353 C   0  0  0  0  0  0  0  0  0  0  0  0
   -4.3165   -3.8275    4.3655 Cl  0  0  0  0  0  0  0  0  0  0  0  0
   -2.1642   -2.7261    3.0739 C   0  0  0  0  0  0  0  0  0  0  0  0
    0.7684   -1.9539    2.3579 O   0  0  0  0  0  0  0  0  0  0  0  0
   -1.4308   -0.9999   -0.3221 C   0  0  0  0  0  0  0  0  0  0  0  0
   -2.6930   -0.7990    0.5636 C   0  0  0  0  0  0  0  0  0  0  0  0
   -3.7148   -1.6276    0.3379 O   0  0  0  0  0  0  0  0  0  0  0  0
   -2.7412    0.0399    1.4119 O   0  0  0  0  0  0  0  0  0  0  0  0
   -1.1029    0.1938   -1.0640 N   0  0  0  0  0  0  0  0  0  0  0  0
   -1.9319    0.8908   -1.8792 C   0  0  0  0  0  0  0  0  0  0  0  0
   -3.3375    0.3728   -1.9153 C   0  0  0  0  0  0  0  0  0  0  0  0
   -4.3709    1.0440   -1.3254 C   0  0  0  0  0  0  0  0  0  0  0  0
   -4.2416    2.4683   -0.4080 Cl  0  0  0  0  0  0  0  0  0  0  0  0
   -5.8956    0.2470   -1.5602 S   0  0  0  0  0  0  0  0  0  0  0  0
   -5.1101   -0.9877   -2.4974 C   0  0  0  0  0  0  0  0  0  0  0  0
   -5.9987   -2.2800   -3.1690 Cl  0  0  0  0  0  0  0  0  0  0  0  0
   -3.7668   -0.7933   -2.5989 C   0  0  0  0  0  0  0  0  0  0  0  0
   -1.5679    1.8515   -2.5139 O   0  0  0  0  0  0  0  0  0  0  0  0
    1.8461    2.7062   -1.6316 H   0  0  0  0  0  0  0  0  0  0  0  0
    1.8801    5.0258   -0.8163 H   0  0  0  0  0  0  0  0  0  0  0  0
    0.9658    6.7781    0.6637 H   0  0  0  0  0  0  0  0  0  0  0  0
   -0.6317    7.4606    2.4089 H   0  0  0  0  0  0  0  0  0  0  0  0
   -2.2165    5.8295    3.3508 H   0  0  0  0  0  0  0  0  0  0  0  0
   -2.2140    3.4933    2.5570 H   0  0  0  0  0  0  0  0  0  0  0  0
   -1.3066    1.7678    1.0977 H   0  0  0  0  0  0  0  0  0  0  0  0
    0.8049    0.6363   -1.7862 H   0  0  0  0  0  0  0  0  0  0  0  0
    1.1639    0.1774    1.0895 H   0  0  0  0  0  0  0  0  0  0  0  0
    3.4307   -0.3009    0.9650 H   0  0  0  0  0  0  0  0  0  0  0  0
    5.8183   -0.8759    0.9559 H   0  0  0  0  0  0  0  0  0  0  0  0
    7.6941   -2.1596    0.0058 H   0  0  0  0  0  0  0  0  0  0  0  0
    7.3159   -3.7039   -1.8737 H   0  0  0  0  0  0  0  0  0  0  0  0
    5.0599   -3.9805   -2.8200 H   0  0  0  0  0  0  0  0  0  0  0  0
    2.6649   -3.3934   -2.8139 H   0  0  0  0  0  0  0  0  0  0  0  0
    0.8010   -2.1050   -1.8750 H   0  0  0  0  0  0  0  0  0  0  0  0
   -1.9891   -1.9757    3.8218 H   0  0  0  0  0  0  0  0  0  0  0  0
   -1.5917   -1.8517   -1.0127 H   0  0  0  0  0  0  0  0  0  0  0  0
   -3.5720   -2.2566   -0.3849 H   0  0  0  0  0  0  0  0  0  0  0  0
   -3.1127   -1.4319   -3.1645 H   0  0  0  0  0  0  0  0  0  0  0  0
  1  2  2  0  0  0  0
  2  3  4  0  0  0  0
  3  4  4  0  0  0  0
  4  5  2  0  0  0  0
  5  6  4  0  0  0  0
  6  7  2  0  0  0  0
  3  8  4  0  0  0  0
  7  8  4  0  0  0  0
  8  9  4  0  0  0  0
  1 10  4  0  0  0  0
  9 10  2  0  0  0  0
 10 11  1  0  0  0  0
 11 12  1  0  0  0  0
 12 13  1  0  0  0  0
 13 14  2  0  0  0  0
 14 15  4  0  0  0  0
 15 16  4  0  0  0  0
 16 17  2  0  0  0  0
 17 18  4  0  0  0  0
 18 19  2  0  0  0  0
 15 20  4  0  0  0  0
 19 20  4  0  0  0  0
 20 21  4  0  0  0  0
 13 22  4  0  0  0  0
 21 22  2  0  0  0  0
 12 23  1  0  0  0  0
 23 24  4  0  0  0  0
 24 25  1  0  0  0  0
 25 26  2  0  0  0  0
 26 27  1  0  0  0  0
 26 28  1  0  0  0  0
 28 29  1  0  0  0  0
 29 30  1  0  0  0  0
 25 31  4  0  0  0  0
 29 31  2  0  0  0  0
 24 32  2  0  0  0  0
 23 33  1  0  0  0  0
 33 34  1  0  0  0  0
 34 35  1  0  0  0  0
 34 36  2  0  0  0  0
 11 37  1  0  0  0  0
 33 37  1  0  0  0  0
 37 38  4  0  0  0  0
 38 39  1  0  0  0  0
 39 40  2  0  0  0  0
 40 41  1  0  0  0  0
 40 42  1  0  0  0  0
 42 43  1  0  0  0  0
 43 44  1  0  0  0  0
 39 45  4  0  0  0  0
 43 45  2  0  0  0  0
 38 46  2  0  0  0  0
  1 47  1  0  0  0  0
  2 48  1  0  0  0  0
  4 49  1  0  0  0  0
  5 50  1  0  0  0  0
  6 51  1  0  0  0  0
  7 52  1  0  0  0  0
  9 53  1  0  0  0  0
 11 54  1  0  0  0  0
 12 55  1  0  0  0  0
 14 56  1  0  0  0  0
 16 57  1  0  0  0  0
 17 58  1  0  0  0  0
 18 59  1  0  0  0  0
 19 60  1  0  0  0  0
 21 61  1  0  0  0  0
 22 62  1  0  0  0  0
 31 63  1  0  0  0  0
 33 64  1  0  0  0  0
 35 65  1  0  0  0  0
 45 66  1  0  0  0  0
M  END
