
  xtb     03162222303D
 xtb: 6.3.3 (4ae9cef)
 78 82  0     0  0            999 V2000
    0.5587   -3.4256   -1.9037 C   0  0  0  0  0  0  0  0  0  0  0  0
   -0.2410   -2.9823   -3.0987 C   0  0  0  0  0  0  0  0  0  0  0  0
   -0.5417   -3.9937   -3.9258 F   0  0  0  0  0  0  0  0  0  0  0  0
    0.3591   -2.0535   -3.8505 F   0  0  0  0  0  0  0  0  0  0  0  0
   -1.4374   -2.4518   -2.7396 F   0  0  0  0  0  0  0  0  0  0  0  0
    0.9486   -4.7580   -1.8320 C   0  0  0  0  0  0  0  0  0  0  0  0
    1.6765   -5.2166   -0.7507 C   0  0  0  0  0  0  0  0  0  0  0  0
    2.0138   -4.3424    0.2675 C   0  0  0  0  0  0  0  0  0  0  0  0
    1.6256   -3.0186    0.1963 C   0  0  0  0  0  0  0  0  0  0  0  0
    0.9023   -2.5319   -0.8872 C   0  0  0  0  0  0  0  0  0  0  0  0
    0.5354   -1.0671   -0.9182 C   0  0  0  0  0  0  0  0  0  0  0  0
   -0.5955   -0.7100    0.0852 C   0  0  0  0  0  0  0  0  0  0  0  0
   -1.9441   -0.5691   -0.5762 C   0  0  0  0  0  0  0  0  0  0  0  0
   -2.2935    0.3962   -1.5217 C   0  0  0  0  0  0  0  0  0  0  0  0
   -1.4265    1.4977   -2.0781 C   0  0  0  0  0  0  0  0  0  0  0  0
   -2.0142    2.6998   -1.9087 F   0  0  0  0  0  0  0  0  0  0  0  0
   -1.2730    1.3529   -3.4085 F   0  0  0  0  0  0  0  0  0  0  0  0
   -0.1930    1.6323   -1.5864 F   0  0  0  0  0  0  0  0  0  0  0  0
   -3.5728    0.4043   -2.0754 C   0  0  0  0  0  0  0  0  0  0  0  0
   -4.5134   -0.5361   -1.7128 C   0  0  0  0  0  0  0  0  0  0  0  0
   -4.1721   -1.5092   -0.7914 C   0  0  0  0  0  0  0  0  0  0  0  0
   -2.9077   -1.5178   -0.2404 C   0  0  0  0  0  0  0  0  0  0  0  0
   -0.1060    0.4803    0.7543 N   0  0  0  0  0  0  0  0  0  0  0  0
   -0.7935    1.4523    1.4208 C   0  0  0  0  0  0  0  0  0  0  0  0
   -2.2453    1.1897    1.6191 C   0  0  0  0  0  0  0  0  0  0  0  0
   -2.6563    0.0984    2.3735 C   0  0  0  0  0  0  0  0  0  0  0  0
   -4.0009   -0.1606    2.5853 C   0  0  0  0  0  0  0  0  0  0  0  0
   -4.4200   -1.3468    3.3982 C   0  0  0  0  0  0  0  0  0  0  0  0
   -4.9576    0.6903    2.0220 C   0  0  0  0  0  0  0  0  0  0  0  0
   -6.4184    0.4169    2.2012 C   0  0  0  0  0  0  0  0  0  0  0  0
   -4.5366    1.7982    1.3000 C   0  0  0  0  0  0  0  0  0  0  0  0
   -3.1940    2.0636    1.1085 C   0  0  0  0  0  0  0  0  0  0  0  0
   -0.2271    2.4426    1.8328 O   0  0  0  0  0  0  0  0  0  0  0  0
    1.3267    0.5580    0.6557 C   0  0  0  0  0  0  0  0  0  0  0  0
    2.0145    0.0074    1.9227 C   0  0  0  0  0  0  0  0  0  0  0  0
    1.1404   -0.2713    2.8903 O   0  0  0  0  0  0  0  0  0  0  0  0
    3.1964   -0.1554    2.0341 O   0  0  0  0  0  0  0  0  0  0  0  0
    1.6500   -0.2247   -0.5075 N   0  0  0  0  0  0  0  0  0  0  0  0
    2.8373   -0.2953   -1.1813 C   0  0  0  0  0  0  0  0  0  0  0  0
    3.8387    0.7446   -0.8337 C   0  0  0  0  0  0  0  0  0  0  0  0
    5.1120    0.3720   -0.4300 C   0  0  0  0  0  0  0  0  0  0  0  0
    6.0463    1.3469   -0.1368 C   0  0  0  0  0  0  0  0  0  0  0  0
    5.7445    2.6960   -0.2595 C   0  0  0  0  0  0  0  0  0  0  0  0
    6.7732    3.7339    0.0679 C   0  0  0  0  0  0  0  0  0  0  0  0
    4.4718    3.0736   -0.7014 C   0  0  0  0  0  0  0  0  0  0  0  0
    4.1159    4.5191   -0.8657 C   0  0  0  0  0  0  0  0  0  0  0  0
    3.5337    2.0927   -0.9820 C   0  0  0  0  0  0  0  0  0  0  0  0
    3.0169   -1.1575   -2.0162 O   0  0  0  0  0  0  0  0  0  0  0  0
    0.6859   -5.4336   -2.6309 H   0  0  0  0  0  0  0  0  0  0  0  0
    1.9833   -6.2499   -0.7092 H   0  0  0  0  0  0  0  0  0  0  0  0
    2.5879   -4.6878    1.1138 H   0  0  0  0  0  0  0  0  0  0  0  0
    1.9140   -2.3382    0.9824 H   0  0  0  0  0  0  0  0  0  0  0  0
    0.2590   -0.7796   -1.9371 H   0  0  0  0  0  0  0  0  0  0  0  0
   -0.6689   -1.5272    0.8194 H   0  0  0  0  0  0  0  0  0  0  0  0
   -3.8188    1.1622   -2.8039 H   0  0  0  0  0  0  0  0  0  0  0  0
   -5.4975   -0.5128   -2.1530 H   0  0  0  0  0  0  0  0  0  0  0  0
   -4.8876   -2.2641   -0.5042 H   0  0  0  0  0  0  0  0  0  0  0  0
   -2.6507   -2.2847    0.4745 H   0  0  0  0  0  0  0  0  0  0  0  0
   -1.9108   -0.5497    2.8125 H   0  0  0  0  0  0  0  0  0  0  0  0
   -5.0113   -1.0329    4.2575 H   0  0  0  0  0  0  0  0  0  0  0  0
   -3.5528   -1.8941    3.7587 H   0  0  0  0  0  0  0  0  0  0  0  0
   -5.0351   -2.0210    2.8030 H   0  0  0  0  0  0  0  0  0  0  0  0
   -7.0156    1.1742    1.7006 H   0  0  0  0  0  0  0  0  0  0  0  0
   -6.6822    0.4103    3.2582 H   0  0  0  0  0  0  0  0  0  0  0  0
   -6.6778   -0.5580    1.7896 H   0  0  0  0  0  0  0  0  0  0  0  0
   -5.2732    2.4686    0.8818 H   0  0  0  0  0  0  0  0  0  0  0  0
   -2.8795    2.9337    0.5539 H   0  0  0  0  0  0  0  0  0  0  0  0
    1.6402    1.6083    0.5677 H   0  0  0  0  0  0  0  0  0  0  0  0
    1.6020   -0.5334    3.7042 H   0  0  0  0  0  0  0  0  0  0  0  0
    5.3555   -0.6745   -0.3351 H   0  0  0  0  0  0  0  0  0  0  0  0
    7.0329    1.0543    0.1928 H   0  0  0  0  0  0  0  0  0  0  0  0
    7.6978    3.2689    0.3998 H   0  0  0  0  0  0  0  0  0  0  0  0
    6.4134    4.3937    0.8567 H   0  0  0  0  0  0  0  0  0  0  0  0
    6.9883    4.3496   -0.8050 H   0  0  0  0  0  0  0  0  0  0  0  0
    4.7899    5.0037   -1.5712 H   0  0  0  0  0  0  0  0  0  0  0  0
    3.0976    4.6252   -1.2297 H   0  0  0  0  0  0  0  0  0  0  0  0
    4.1993    5.0435    0.0858 H   0  0  0  0  0  0  0  0  0  0  0  0
    2.5581    2.3810   -1.3488 H   0  0  0  0  0  0  0  0  0  0  0  0
  1  2  1  0  0  0  0
  2  3  1  0  0  0  0
  2  4  1  0  0  0  0
  2  5  1  0  0  0  0
  1  6  4  0  0  0  0
  6  7  4  0  0  0  0
  7  8  4  0  0  0  0
  8  9  4  0  0  0  0
  1 10  4  0  0  0  0
  9 10  4  0  0  0  0
 10 11  1  0  0  0  0
 11 12  1  0  0  0  0
 12 13  1  0  0  0  0
 13 14  4  0  0  0  0
 14 15  1  0  0  0  0
 15 16  1  0  0  0  0
 15 17  1  0  0  0  0
 15 18  1  0  0  0  0
 14 19  4  0  0  0  0
 19 20  4  0  0  0  0
 20 21  4  0  0  0  0
 13 22  4  0  0  0  0
 21 22  4  0  0  0  0
 12 23  1  0  0  0  0
 23 24  1  0  0  0  0
 24 25  1  0  0  0  0
 25 26  4  0  0  0  0
 26 27  4  0  0  0  0
 27 28  1  0  0  0  0
 27 29  4  0  0  0  0
 29 30  1  0  0  0  0
 29 31  4  0  0  0  0
 25 32  4  0  0  0  0
 31 32  4  0  0  0  0
 24 33  2  0  0  0  0
 23 34  1  0  0  0  0
 34 35  1  0  0  0  0
 35 36  1  0  0  0  0
 35 37  2  0  0  0  0
 11 38  1  0  0  0  0
 34 38  1  0  0  0  0
 38 39  1  0  0  0  0
 39 40  1  0  0  0  0
 40 41  4  0  0  0  0
 41 42  4  0  0  0  0
 42 43  4  0  0  0  0
 43 44  1  0  0  0  0
 43 45  4  0  0  0  0
 45 46  1  0  0  0  0
 40 47  4  0  0  0  0
 45 47  4  0  0  0  0
 39 48  2  0  0  0  0
  6 49  1  0  0  0  0
  7 50  1  0  0  0  0
  8 51  1  0  0  0  0
  9 52  1  0  0  0  0
 11 53  1  0  0  0  0
 12 54  1  0  0  0  0
 19 55  1  0  0  0  0
 20 56  1  0  0  0  0
 21 57  1  0  0  0  0
 22 58  1  0  0  0  0
 26 59  1  0  0  0  0
 28 60  1  0  0  0  0
 28 61  1  0  0  0  0
 28 62  1  0  0  0  0
 30 63  1  0  0  0  0
 30 64  1  0  0  0  0
 30 65  1  0  0  0  0
 31 66  1  0  0  0  0
 32 67  1  0  0  0  0
 34 68  1  0  0  0  0
 36 69  1  0  0  0  0
 41 70  1  0  0  0  0
 42 71  1  0  0  0  0
 44 72  1  0  0  0  0
 44 73  1  0  0  0  0
 44 74  1  0  0  0  0
 46 75  1  0  0  0  0
 46 76  1  0  0  0  0
 46 77  1  0  0  0  0
 47 78  1  0  0  0  0
M  END
