
  xtb     03172201263D
 xtb: 6.3.3 (4ae9cef)
 78 80  0     0  0            999 V2000
    1.8221   -1.9319    0.7280 C   0  0  0  0  0  0  0  0  0  0  0  0
    1.7168   -0.8961    1.6135 O   0  0  0  0  0  0  0  0  0  0  0  0
    2.3689   -1.0030    2.8541 C   0  0  0  0  0  0  0  0  0  0  0  0
    2.4213   -3.1493    1.0209 C   0  0  0  0  0  0  0  0  0  0  0  0
    2.4560   -4.1580    0.0725 C   0  0  0  0  0  0  0  0  0  0  0  0
    1.8985   -3.9636   -1.1754 C   0  0  0  0  0  0  0  0  0  0  0  0
    1.3145   -2.7451   -1.4769 C   0  0  0  0  0  0  0  0  0  0  0  0
    1.2736   -1.7229   -0.5463 C   0  0  0  0  0  0  0  0  0  0  0  0
    0.5887   -0.4279   -0.8825 C   0  0  0  0  0  0  0  0  0  0  0  0
   -0.7469   -0.2968   -0.1115 C   0  0  0  0  0  0  0  0  0  0  0  0
   -1.8863   -0.7690   -0.9743 C   0  0  0  0  0  0  0  0  0  0  0  0
   -2.3437    0.0009   -2.0316 C   0  0  0  0  0  0  0  0  0  0  0  0
   -3.3647   -0.4557   -2.8478 C   0  0  0  0  0  0  0  0  0  0  0  0
   -3.9229   -1.6976   -2.6102 C   0  0  0  0  0  0  0  0  0  0  0  0
   -3.4673   -2.4873   -1.5675 C   0  0  0  0  0  0  0  0  0  0  0  0
   -2.4452   -2.0339   -0.7422 C   0  0  0  0  0  0  0  0  0  0  0  0
   -1.9336   -2.7376    0.3107 O   0  0  0  0  0  0  0  0  0  0  0  0
   -2.3806   -4.0544    0.5227 C   0  0  0  0  0  0  0  0  0  0  0  0
   -0.7945    1.1062    0.2409 N   0  0  0  0  0  0  0  0  0  0  0  0
   -1.8345    1.8724    0.6416 C   0  0  0  0  0  0  0  0  0  0  0  0
   -3.1182    1.1517    0.9810 C   0  0  0  0  0  0  0  0  0  0  0  0
   -3.9604    1.9632    1.9644 C   0  0  0  0  0  0  0  0  0  0  0  0
   -5.3761    1.4139    2.1240 C   0  0  0  0  0  0  0  0  0  0  0  0
   -5.4168    0.0125    2.7312 C   0  0  0  0  0  0  0  0  0  0  0  0
   -6.8473   -0.4418    2.9960 C   0  0  0  0  0  0  0  0  0  0  0  0
   -1.6840    3.0799    0.7288 O   0  0  0  0  0  0  0  0  0  0  0  0
    0.4657    1.7801    0.0074 C   0  0  0  0  0  0  0  0  0  0  0  0
    0.2058    2.9104   -1.0119 C   0  0  0  0  0  0  0  0  0  0  0  0
    0.8061    4.0448   -0.6719 O   0  0  0  0  0  0  0  0  0  0  0  0
   -0.4281    2.7641   -2.0201 O   0  0  0  0  0  0  0  0  0  0  0  0
    1.3399    0.7587   -0.4948 N   0  0  0  0  0  0  0  0  0  0  0  0
    2.6950    0.8130   -0.5972 C   0  0  0  0  0  0  0  0  0  0  0  0
    3.3453    2.0406    0.0161 C   0  0  0  0  0  0  0  0  0  0  0  0
    4.8299    2.1213   -0.3358 C   0  0  0  0  0  0  0  0  0  0  0  0
    5.0364    2.5050   -1.7992 C   0  0  0  0  0  0  0  0  0  0  0  0
    6.5055    2.7099   -2.1675 C   0  0  0  0  0  0  0  0  0  0  0  0
    7.3289    1.4308   -2.0724 C   0  0  0  0  0  0  0  0  0  0  0  0
    3.3223   -0.0839   -1.1193 O   0  0  0  0  0  0  0  0  0  0  0  0
    3.4459   -1.1520    2.7293 H   0  0  0  0  0  0  0  0  0  0  0  0
    1.9560   -1.8160    3.4607 H   0  0  0  0  0  0  0  0  0  0  0  0
    2.1921   -0.0559    3.3627 H   0  0  0  0  0  0  0  0  0  0  0  0
    2.8661   -3.3248    1.9878 H   0  0  0  0  0  0  0  0  0  0  0  0
    2.9263   -5.0984    0.3195 H   0  0  0  0  0  0  0  0  0  0  0  0
    1.9257   -4.7493   -1.9146 H   0  0  0  0  0  0  0  0  0  0  0  0
    0.8876   -2.5786   -2.4550 H   0  0  0  0  0  0  0  0  0  0  0  0
    0.3948   -0.3933   -1.9634 H   0  0  0  0  0  0  0  0  0  0  0  0
   -0.7039   -0.9046    0.8001 H   0  0  0  0  0  0  0  0  0  0  0  0
   -1.8960    0.9676   -2.2095 H   0  0  0  0  0  0  0  0  0  0  0  0
   -3.7168    0.1546   -3.6646 H   0  0  0  0  0  0  0  0  0  0  0  0
   -4.7191   -2.0654   -3.2402 H   0  0  0  0  0  0  0  0  0  0  0  0
   -3.9157   -3.4548   -1.4072 H   0  0  0  0  0  0  0  0  0  0  0  0
   -1.7967   -4.4287    1.3619 H   0  0  0  0  0  0  0  0  0  0  0  0
   -3.4445   -4.0840    0.7802 H   0  0  0  0  0  0  0  0  0  0  0  0
   -2.1970   -4.6845   -0.3526 H   0  0  0  0  0  0  0  0  0  0  0  0
   -2.8822    0.1671    1.3834 H   0  0  0  0  0  0  0  0  0  0  0  0
   -3.6785    1.0131    0.0528 H   0  0  0  0  0  0  0  0  0  0  0  0
   -4.0079    2.9914    1.6016 H   0  0  0  0  0  0  0  0  0  0  0  0
   -3.4617    1.9815    2.9359 H   0  0  0  0  0  0  0  0  0  0  0  0
   -5.9404    2.0914    2.7692 H   0  0  0  0  0  0  0  0  0  0  0  0
   -5.8704    1.3980    1.1498 H   0  0  0  0  0  0  0  0  0  0  0  0
   -4.8570    0.0107    3.6694 H   0  0  0  0  0  0  0  0  0  0  0  0
   -4.9374   -0.6965    2.0536 H   0  0  0  0  0  0  0  0  0  0  0  0
   -6.8607   -1.4420    3.4235 H   0  0  0  0  0  0  0  0  0  0  0  0
   -7.4193   -0.4562    2.0707 H   0  0  0  0  0  0  0  0  0  0  0  0
   -7.3405    0.2343    3.6911 H   0  0  0  0  0  0  0  0  0  0  0  0
    0.8388    2.2371    0.9357 H   0  0  0  0  0  0  0  0  0  0  0  0
    0.5628    4.7588   -1.2837 H   0  0  0  0  0  0  0  0  0  0  0  0
    3.2220    1.9593    1.1001 H   0  0  0  0  0  0  0  0  0  0  0  0
    2.8352    2.9456   -0.3123 H   0  0  0  0  0  0  0  0  0  0  0  0
    5.2822    1.1474   -0.1490 H   0  0  0  0  0  0  0  0  0  0  0  0
    5.3124    2.8608    0.3078 H   0  0  0  0  0  0  0  0  0  0  0  0
    4.6134    1.7209   -2.4288 H   0  0  0  0  0  0  0  0  0  0  0  0
    4.4923    3.4321   -2.0024 H   0  0  0  0  0  0  0  0  0  0  0  0
    6.5543    3.0853   -3.1926 H   0  0  0  0  0  0  0  0  0  0  0  0
    6.9404    3.4729   -1.5165 H   0  0  0  0  0  0  0  0  0  0  0  0
    7.4240    1.1038   -1.0406 H   0  0  0  0  0  0  0  0  0  0  0  0
    8.3287    1.5932   -2.4701 H   0  0  0  0  0  0  0  0  0  0  0  0
    6.8547    0.6347   -2.6413 H   0  0  0  0  0  0  0  0  0  0  0  0
  1  2  1  0  0  0  0
  2  3  1  0  0  0  0
  1  4  4  0  0  0  0
  4  5  4  0  0  0  0
  5  6  4  0  0  0  0
  6  7  4  0  0  0  0
  1  8  4  0  0  0  0
  7  8  4  0  0  0  0
  8  9  1  0  0  0  0
  9 10  1  0  0  0  0
 10 11  1  0  0  0  0
 11 12  4  0  0  0  0
 12 13  4  0  0  0  0
 13 14  4  0  0  0  0
 14 15  4  0  0  0  0
 11 16  4  0  0  0  0
 15 16  4  0  0  0  0
 16 17  1  0  0  0  0
 17 18  1  0  0  0  0
 10 19  1  0  0  0  0
 19 20  4  0  0  0  0
 20 21  1  0  0  0  0
 21 22  1  0  0  0  0
 22 23  1  0  0  0  0
 23 24  1  0  0  0  0
 24 25  1  0  0  0  0
 20 26  2  0  0  0  0
 19 27  1  0  0  0  0
 27 28  1  0  0  0  0
 28 29  1  0  0  0  0
 28 30  2  0  0  0  0
  9 31  1  0  0  0  0
 27 31  1  0  0  0  0
 31 32  4  0  0  0  0
 32 33  1  0  0  0  0
 33 34  1  0  0  0  0
 34 35  1  0  0  0  0
 35 36  1  0  0  0  0
 36 37  1  0  0  0  0
 32 38  2  0  0  0  0
  3 39  1  0  0  0  0
  3 40  1  0  0  0  0
  3 41  1  0  0  0  0
  4 42  1  0  0  0  0
  5 43  1  0  0  0  0
  6 44  1  0  0  0  0
  7 45  1  0  0  0  0
  9 46  1  0  0  0  0
 10 47  1  0  0  0  0
 12 48  1  0  0  0  0
 13 49  1  0  0  0  0
 14 50  1  0  0  0  0
 15 51  1  0  0  0  0
 18 52  1  0  0  0  0
 18 53  1  0  0  0  0
 18 54  1  0  0  0  0
 21 55  1  0  0  0  0
 21 56  1  0  0  0  0
 22 57  1  0  0  0  0
 22 58  1  0  0  0  0
 23 59  1  0  0  0  0
 23 60  1  0  0  0  0
 24 61  1  0  0  0  0
 24 62  1  0  0  0  0
 25 63  1  0  0  0  0
 25 64  1  0  0  0  0
 25 65  1  0  0  0  0
 27 66  1  0  0  0  0
 29 67  1  0  0  0  0
 33 68  1  0  0  0  0
 33 69  1  0  0  0  0
 34 70  1  0  0  0  0
 34 71  1  0  0  0  0
 35 72  1  0  0  0  0
 35 73  1  0  0  0  0
 36 74  1  0  0  0  0
 36 75  1  0  0  0  0
 37 76  1  0  0  0  0
 37 77  1  0  0  0  0
 37 78  1  0  0  0  0
M  END
