
  xtb     03172201443D
 xtb: 6.3.3 (4ae9cef)
 50 53  0     0  0            999 V2000
    1.3171   -1.1153   -3.3572 O   0  0  0  0  0  0  0  0  0  0  0  0
    1.6190   -0.4945   -2.3638 C   0  0  0  0  0  0  0  0  0  0  0  0
    2.9825    0.0698   -2.1332 C   0  0  0  0  0  0  0  0  0  0  0  0
    3.4974    0.9955   -3.0310 C   0  0  0  0  0  0  0  0  0  0  0  0
    4.7665    1.5122   -2.8375 C   0  0  0  0  0  0  0  0  0  0  0  0
    5.5324    1.0933   -1.7625 C   0  0  0  0  0  0  0  0  0  0  0  0
    5.0311    0.1504   -0.8800 C   0  0  0  0  0  0  0  0  0  0  0  0
    3.7580   -0.3594   -1.0612 C   0  0  0  0  0  0  0  0  0  0  0  0
    0.7563   -0.3317   -1.3103 N   0  0  0  0  0  0  0  0  0  0  0  0
    0.8573    0.7474   -0.3582 C   0  0  0  0  0  0  0  0  0  0  0  0
    0.7613    2.1352   -1.0720 C   0  0  0  0  0  0  0  0  0  0  0  0
    0.8367    3.1716   -0.2704 O   0  0  0  0  0  0  0  0  0  0  0  0
    0.6548    2.2100   -2.2628 O   0  0  0  0  0  0  0  0  0  0  0  0
   -0.2579    0.5168    0.5614 N   0  0  0  0  0  0  0  0  0  0  0  0
   -0.3031    1.1147    1.7628 C   0  0  0  0  0  0  0  0  0  0  0  0
   -1.2890    0.5936    2.7469 C   0  0  0  0  0  0  0  0  0  0  0  0
   -2.3074    1.4225    3.2015 C   0  0  0  0  0  0  0  0  0  0  0  0
   -3.2006    0.9607    4.1517 C   0  0  0  0  0  0  0  0  0  0  0  0
   -3.0672   -0.3178    4.6674 C   0  0  0  0  0  0  0  0  0  0  0  0
   -2.0347   -1.1348    4.2369 C   0  0  0  0  0  0  0  0  0  0  0  0
   -1.1466   -0.6839    3.2769 C   0  0  0  0  0  0  0  0  0  0  0  0
    0.4417    2.0567    2.0367 O   0  0  0  0  0  0  0  0  0  0  0  0
   -1.0911   -0.5667    0.0620 C   0  0  0  0  0  0  0  0  0  0  0  0
   -0.6587   -0.6607   -1.4006 C   0  0  0  0  0  0  0  0  0  0  0  0
   -1.0348   -2.0304   -1.9475 C   0  0  0  0  0  0  0  0  0  0  0  0
   -2.4081   -2.4279   -1.3727 C   0  0  0  0  0  0  0  0  0  0  0  0
   -3.2495   -1.2019   -1.0082 C   0  0  0  0  0  0  0  0  0  0  0  0
   -2.6044   -0.3820    0.1270 C   0  0  0  0  0  0  0  0  0  0  0  0
    2.8891    1.3132   -3.8631 H   0  0  0  0  0  0  0  0  0  0  0  0
    5.1602    2.2411   -3.5298 H   0  0  0  0  0  0  0  0  0  0  0  0
    6.5235    1.4957   -1.6140 H   0  0  0  0  0  0  0  0  0  0  0  0
    5.6326   -0.1883   -0.0492 H   0  0  0  0  0  0  0  0  0  0  0  0
    3.3705   -1.1072   -0.3827 H   0  0  0  0  0  0  0  0  0  0  0  0
    1.8082    0.7273    0.1948 H   0  0  0  0  0  0  0  0  0  0  0  0
    0.8390    2.9034    0.6994 H   0  0  0  0  0  0  0  0  0  0  0  0
   -2.3952    2.4222    2.8041 H   0  0  0  0  0  0  0  0  0  0  0  0
   -3.9969    1.6029    4.4961 H   0  0  0  0  0  0  0  0  0  0  0  0
   -3.7616   -0.6749    5.4128 H   0  0  0  0  0  0  0  0  0  0  0  0
   -1.9187   -2.1250    4.6517 H   0  0  0  0  0  0  0  0  0  0  0  0
   -0.3302   -1.3143    2.9559 H   0  0  0  0  0  0  0  0  0  0  0  0
   -0.8061   -1.4943    0.5741 H   0  0  0  0  0  0  0  0  0  0  0  0
   -1.1584    0.1250   -1.9837 H   0  0  0  0  0  0  0  0  0  0  0  0
   -1.0584   -1.9925   -3.0346 H   0  0  0  0  0  0  0  0  0  0  0  0
   -0.2781   -2.7615   -1.6625 H   0  0  0  0  0  0  0  0  0  0  0  0
   -2.9468   -3.0296   -2.1046 H   0  0  0  0  0  0  0  0  0  0  0  0
   -2.2802   -3.0427   -0.4797 H   0  0  0  0  0  0  0  0  0  0  0  0
   -3.3688   -0.5820   -1.8971 H   0  0  0  0  0  0  0  0  0  0  0  0
   -4.2450   -1.5212   -0.6983 H   0  0  0  0  0  0  0  0  0  0  0  0
   -2.9831   -0.7142    1.0941 H   0  0  0  0  0  0  0  0  0  0  0  0
   -2.8547    0.6739    0.0141 H   0  0  0  0  0  0  0  0  0  0  0  0
  1  2  2  0  0  0  0
  2  3  1  0  0  0  0
  3  4  4  0  0  0  0
  4  5  4  0  0  0  0
  5  6  4  0  0  0  0
  6  7  4  0  0  0  0
  3  8  4  0  0  0  0
  7  8  4  0  0  0  0
  2  9  1  0  0  0  0
  9 10  1  0  0  0  0
 10 11  1  0  0  0  0
 11 12  4  0  0  0  0
 11 13  2  0  0  0  0
 10 14  1  0  0  0  0
 14 15  4  0  0  0  0
 15 16  1  0  0  0  0
 16 17  4  0  0  0  0
 17 18  4  0  0  0  0
 18 19  4  0  0  0  0
 19 20  4  0  0  0  0
 16 21  4  0  0  0  0
 20 21  4  0  0  0  0
 15 22  2  0  0  0  0
 14 23  1  0  0  0  0
  9 24  1  0  0  0  0
 23 24  1  0  0  0  0
 24 25  1  0  0  0  0
 25 26  1  0  0  0  0
 26 27  1  0  0  0  0
 23 28  1  0  0  0  0
 27 28  1  0  0  0  0
  4 29  1  0  0  0  0
  5 30  1  0  0  0  0
  6 31  1  0  0  0  0
  7 32  1  0  0  0  0
  8 33  1  0  0  0  0
 10 34  1  0  0  0  0
 12 35  1  0  0  0  0
 17 36  1  0  0  0  0
 18 37  1  0  0  0  0
 19 38  1  0  0  0  0
 20 39  1  0  0  0  0
 21 40  1  0  0  0  0
 23 41  1  0  0  0  0
 24 42  1  0  0  0  0
 25 43  1  0  0  0  0
 25 44  1  0  0  0  0
 26 45  1  0  0  0  0
 26 46  1  0  0  0  0
 27 47  1  0  0  0  0
 27 48  1  0  0  0  0
 28 49  1  0  0  0  0
 28 50  1  0  0  0  0
M  END
