74

C     -1.803260   -1.801748   -2.403174
O     -1.456597   -2.907506   -1.671289
C     -1.574831   -4.177979   -2.299273
C     -2.369521   -1.848401   -3.681866
C     -2.704029   -0.671027   -4.349772
C     -2.483852    0.558418   -3.741652
C     -1.924449    0.615909   -2.464883
C     -1.562752   -0.557456   -1.777554
C     -0.939800   -0.532192   -0.379862
C      0.537952   -1.034494   -0.373645
C      0.786934   -2.123371    0.676972
C      1.291385   -3.360872    0.228016
C      1.531912   -4.408785    1.114625
C      1.276558   -4.237568    2.468772
C      0.789235   -3.017282    2.938891
C      0.547761   -1.955593    2.057390
O      0.079892   -0.732182    2.451773
C     -0.076235   -0.491157    3.845528
N      1.347552    0.170089   -0.146558
C      2.727015    0.106130   -0.057588
C      3.431061    1.292187    0.597292
C      4.938655    1.222830    0.550105
C      5.632384    1.654086   -0.589894
C      7.025765    1.588775   -0.635839
C      7.738371    1.090661    0.454046
C      7.057987    0.649460    1.587584
C      5.664045    0.711176    1.635137
O      3.331986   -0.860892   -0.518041
C      0.505317    1.315654    0.183366
C      0.605018    2.416977   -0.923721
O      1.278049    2.015827   -2.039079
O      0.080073    3.519847   -0.874715
N     -0.857025    0.814021    0.205775
C     -1.785297    1.423303    1.021241
C     -3.200401    0.856235    1.078634
C     -4.261743    1.856693    0.683621
C     -4.946785    1.727280   -0.532871
C     -5.923150    2.656731   -0.898733
C     -6.224311    3.723572   -0.054579
C     -5.551546    3.860965    1.158011
C     -4.576386    2.932831    1.525863
O     -1.468819    2.397634    1.710875
H     -2.620427   -4.414739   -2.514266
H     -1.200097   -4.931377   -1.599763
H     -0.960817   -4.230949   -3.204213
H     -2.571281   -2.787852   -4.186780
H     -3.142218   -0.713708   -5.344069
H     -2.752247    1.478919   -4.255817
H     -1.793687    1.602198   -2.023237
H     -1.570565   -1.154113    0.265663
H      0.835899   -1.417589   -1.358175
H      1.513631   -3.510228   -0.827005
H      1.926900   -5.352339    0.747914
H      1.466016   -5.050387    3.165434
H      0.610577   -2.929387    4.005573
H      0.874352   -0.605202    4.376820
H     -0.851487   -1.136704    4.271091
H     -0.402489    0.545877    3.968713
H      3.102857    1.345900    1.642887
H      3.118289    2.223781    0.113974
H      5.091811    2.040234   -1.452094
H      7.554960    1.924283   -1.523535
H      8.823141    1.038869    0.416821
H      7.613034    0.252715    2.433881
H      5.148278    0.352965    2.522791
H      0.815322    1.745008    1.141384
H      1.522591    1.067126   -1.997997
H     -3.314942   -0.035790    0.460757
H     -3.380322    0.522477    2.108523
H     -4.725846    0.903510   -1.207627
H     -6.444800    2.552836   -1.846975
H     -6.977353    4.452406   -0.342275
H     -5.775599    4.698000    1.813632
H     -4.047595    3.064470    2.469040
