72

C      2.592694   -0.525261    1.572863
C      3.774404   -1.035690    2.117196
C      4.480126   -2.059769    1.467362
C      5.680894   -2.564783    1.989766
C      6.381177   -3.574620    1.322443
C      5.881582   -4.101784    0.136117
C      4.687039   -3.612567   -0.391836
C      3.978090   -2.587516    0.257115
C      2.786316   -2.066145   -0.276657
C      2.089716   -1.026272    0.362593
C      0.806062   -0.493108   -0.258752
C     -0.441921   -0.885354    0.588304
C     -1.350297   -1.939445   -0.025053
C     -1.733698   -1.924345   -1.376671
C     -2.580765   -2.910829   -1.912015
C     -2.959263   -2.891282   -3.264386
C     -3.801260   -3.876238   -3.783186
C     -4.274652   -4.893906   -2.959011
C     -3.908361   -4.927365   -1.612571
C     -3.063230   -3.941075   -1.075832
C     -2.694986   -3.949050    0.276808
C     -1.855735   -2.959577    0.794580
N     -1.160615    0.375279    0.810046
C     -1.854393    0.580976    1.987106
C     -2.549045    1.868838    2.171275
C     -3.762720    2.093009    1.517118
C     -4.443879    3.293006    1.724876
C     -3.907459    4.253503    2.587510
Br    -4.838862    5.875196    2.881888
C     -2.701800    4.022907    3.254488
C     -2.020894    2.820206    3.053467
O     -1.932964   -0.239127    2.898858
C     -0.613171    1.426981   -0.032068
C     -1.505936    1.588775   -1.307852
O     -0.820723    1.563637   -2.473638
O     -2.718146    1.748227   -1.353049
N      0.746750    0.971971   -0.319104
C      1.680992    1.694790   -1.046220
C      1.655650    3.174937   -0.972205
C      1.792051    3.901097   -2.162477
C      1.832268    5.296878   -2.131228
C      1.752628    5.959454   -0.906940
Br     1.827139    7.852130   -0.862139
C      1.620326    5.241793    0.282899
C      1.588938    3.844544    0.254002
O      2.522779    1.177780   -1.772087
H      2.075533    0.279835    2.093125
H      4.152597   -0.616843    3.045786
H      6.087209   -2.164357    2.916335
H      7.316333   -3.944701    1.731484
H      6.427389   -4.883195   -0.395489
H      4.315342   -4.033015   -1.323273
H      2.404518   -2.466840   -1.214453
H      0.738485   -0.847755   -1.293829
H     -0.114653   -1.257669    1.568281
H     -1.374428   -1.143927   -2.041063
H     -2.602155   -2.104589   -3.926902
H     -4.081109   -3.852942   -4.830946
H     -4.928506   -5.662451   -3.366520
H     -4.290504   -5.726841   -0.981063
H     -3.067138   -4.721449    0.947248
H     -1.607558   -2.989896    1.856855
H     -4.185759    1.327015    0.867748
H     -5.393882    3.459366    1.222963
H     -2.301401    4.762706    3.944493
H     -1.101740    2.617010    3.596917
H     -0.590277    2.391055    0.472811
H     -1.504892    1.669831   -3.171093
H      1.877252    3.379616   -3.115884
H      1.959824    5.843644   -3.060224
H      1.580745    5.758460    1.237902
H      1.545928    3.287130    1.185085
