72

C      2.851281    0.750783    0.975493
C      3.930586    0.330901    1.758981
C      4.044170   -1.001716    2.175359
C      5.128214   -1.437122    2.954268
C      5.230108   -2.770833    3.350713
C      4.250195   -3.684266    2.974757
C      3.166053   -3.265468    2.201727
C      3.050124   -1.926025    1.793903
C      1.970701   -1.486410    1.007682
C      1.848643   -0.145318    0.590907
C      0.668011    0.240996   -0.293414
C     -0.678902    0.246538    0.492842
C     -1.679247   -0.636900   -0.253950
C     -2.460009   -0.154336   -1.318595
C     -3.353993   -0.989401   -2.010052
C     -4.139512   -0.502785   -3.066409
C     -5.027826   -1.342159   -3.740457
C     -5.139713   -2.678546   -3.369697
C     -4.361301   -3.179425   -2.325379
C     -3.464904   -2.346586   -1.636925
C     -2.677065   -2.833209   -0.585177
C     -1.792270   -1.991953    0.092920
N     -1.080506    1.649312    0.543023
C     -2.086356    2.277856    1.264739
C     -2.793344    1.584900    2.329136
C     -3.239742    0.296493    2.562421
C     -3.882809    0.286563    3.826653
C     -3.815485    1.574912    4.298051
C     -4.297081    2.241494    5.523449
O     -3.170678    2.363839    3.400308
O     -2.316536    3.466372    1.026134
C     -0.242264    2.476219   -0.317609
C      0.483285    3.570120    0.518882
O      0.331376    4.816469    0.022573
O      1.150664    3.389626    1.528943
N      0.743991    1.567783   -0.900377
C      1.414306    1.989058   -2.042420
C      2.321566    1.113787   -2.777836
C      2.873644   -0.146313   -2.615483
C      3.707962   -0.402521   -3.734697
C      3.636805    0.716170   -4.526700
C      4.256434    1.100543   -5.809499
O      2.807577    1.629622   -3.961975
O      1.212873    3.143826   -2.427534
H      2.828430    1.793237    0.668692
H      4.688460    1.061128    2.036974
H      5.904058   -0.737158    3.256362
H      6.075229   -3.094337    3.951966
H      4.328400   -4.723433    3.283150
H      2.412505   -3.997018    1.918813
H      1.224495   -2.213779    0.697994
H      0.634017   -0.484463   -1.115248
H     -0.575338   -0.113229    1.523233
H     -2.384274    0.889312   -1.619947
H     -4.069901    0.540311   -3.370310
H     -5.634256   -0.949127   -4.552654
H     -5.832588   -3.333041   -3.893126
H     -4.464458   -4.226310   -2.050277
H     -2.749405   -3.875914   -0.284735
H     -1.202415   -2.407702    0.908403
H     -3.162611   -0.549825    1.903649
H     -4.354573   -0.552175    4.319896
H     -5.027115    3.016940    5.274018
H     -3.465125    2.709246    6.058317
H     -4.776796    1.525491    6.197426
H     -0.862379    2.939584   -1.094479
H      0.807811    5.400376    0.646496
H      2.730059   -0.832100   -1.798047
H      4.293060   -1.290734   -3.929091
H      5.115319    0.460600   -6.034416
H      3.534340    1.003970   -6.625937
H      4.606025    2.137256   -5.776801
