80

C      1.239776    3.493214   -2.135968
O      1.404097    4.434162   -1.154085
C      1.864830    5.720703   -1.544881
C      1.314600    3.762058   -3.507083
C      1.083940    2.749992   -4.440354
C      0.768420    1.465049   -4.013290
C      0.695063    1.186964   -2.650285
C      0.943723    2.187426   -1.691745
C      0.814875    1.907066   -0.191935
C     -0.683181    1.995398    0.222558
C     -0.954029    2.855132    1.455047
C     -0.112122    2.825088    2.583892
C     -0.392174    3.591824    3.717789
C     -1.508135    4.420181    3.742467
C     -2.343790    4.486411    2.631029
C     -2.076917    3.703046    1.501109
O     -2.844767    3.821184    0.373073
C     -4.237133    3.631105    0.612618
N     -1.068888    0.579620    0.439544
C     -2.286222    0.094225   -0.013695
C     -2.439218   -1.366844   -0.136603
C     -2.202628   -1.959304   -1.380722
C     -2.278884   -3.349426   -1.513809
C     -2.009736   -3.991562   -2.843168
C     -2.598158   -4.124404   -0.388915
C     -2.852541   -3.527838    0.856382
C     -3.239363   -4.379515    2.030903
C     -2.785779   -2.135522    0.975593
O     -3.239971    0.795210   -0.327642
C      0.118907   -0.239627    0.688536
C      0.211453   -0.554699    2.220652
O     -0.881310   -0.176058    2.934796
O      1.155483   -1.102955    2.770907
N      1.229431    0.544831    0.183262
C      2.545787    0.140597    0.070157
C      2.858543   -1.302855    0.139494
C      3.736373   -1.762867    1.123000
C      4.032009   -3.127251    1.213457
C      4.967045   -3.631129    2.272010
C      3.478170   -4.011183    0.275139
C      2.635087   -3.548351   -0.745906
C      2.035305   -4.513465   -1.724926
C      2.325310   -2.185495   -0.806914
O      3.474932    0.922008   -0.111752
H      2.828425    5.654693   -2.064936
H      1.117128    6.238588   -2.156141
H      2.017975    6.310006   -0.633533
H      1.541961    4.753992   -3.883938
H      1.140990    2.971090   -5.502822
H      0.575736    0.682788   -4.742394
H      0.429848    0.181694   -2.342140
H      1.463766    2.596554    0.358109
H     -1.275070    2.384314   -0.614201
H      0.783866    2.207623    2.604780
H      0.272206    3.548419    4.577668
H     -1.716638    5.028226    4.618357
H     -3.185238    5.173131    2.644149
H     -4.425351    2.799036    1.300340
H     -4.695724    4.549813    0.988350
H     -4.710256    3.390795   -0.344083
H     -1.960441   -1.337618   -2.240542
H     -2.673727   -3.572980   -3.607754
H     -2.178632   -5.073041   -2.808074
H     -0.968374   -3.823031   -3.136435
H     -2.662070   -5.208365   -0.482646
H     -3.155432   -3.824294    2.971561
H     -2.580160   -5.251273    2.105218
H     -4.274647   -4.717934    1.918998
H     -3.004285   -1.659339    1.927805
H      0.055882   -1.193255    0.166838
H     -1.485213    0.375056    2.391093
H      4.165107   -1.056420    1.830664
H      5.992291   -3.647648    1.889797
H      4.931595   -2.994769    3.162357
H      4.690799   -4.642563    2.587006
H      3.710729   -5.073588    0.339006
H      1.768414   -4.010709   -2.659764
H      1.133634   -4.965278   -1.299830
H      2.748279   -5.306113   -1.973437
H      1.684415   -1.809745   -1.599162
