
  xtb     03172200123D
 xtb: 6.3.3 (4ae9cef)
 80 84  0     0  0            999 V2000
    0.7677    3.1789   -2.5385 C   0  0  0  0  0  0  0  0  0  0  0  0
    0.8001    4.2763   -1.7297 O   0  0  0  0  0  0  0  0  0  0  0  0
    0.7519    5.5512   -2.3229 C   0  0  0  0  0  0  0  0  0  0  0  0
    0.6480    3.2171   -3.9205 C   0  0  0  0  0  0  0  0  0  0  0  0
    0.6114    2.0384   -4.6480 C   0  0  0  0  0  0  0  0  0  0  0  0
    0.6978    0.8190   -4.0082 C   0  0  0  0  0  0  0  0  0  0  0  0
    0.8201    0.7781   -2.6284 C   0  0  0  0  0  0  0  0  0  0  0  0
    0.8587    1.9405   -1.8841 C   0  0  0  0  0  0  0  0  0  0  0  0
    0.9566    1.9502   -0.3760 C   0  0  0  0  0  0  0  0  0  0  0  0
   -0.4305    2.2219    0.2338 C   0  0  0  0  0  0  0  0  0  0  0  0
   -0.4235    2.7968    1.6303 C   0  0  0  0  0  0  0  0  0  0  0  0
    0.7242    3.0392    2.3648 C   0  0  0  0  0  0  0  0  0  0  0  0
    0.6519    3.5834    3.6375 C   0  0  0  0  0  0  0  0  0  0  0  0
   -0.5766    3.8910    4.1858 C   0  0  0  0  0  0  0  0  0  0  0  0
   -1.7411    3.6364    3.4802 C   0  0  0  0  0  0  0  0  0  0  0  0
   -1.6734    3.0770    2.2128 C   0  0  0  0  0  0  0  0  0  0  0  0
   -2.7587    2.7224    1.4644 O   0  0  0  0  0  0  0  0  0  0  0  0
   -4.0441    3.0664    1.9203 C   0  0  0  0  0  0  0  0  0  0  0  0
   -0.9962    0.8640    0.2412 N   0  0  0  0  0  0  0  0  0  0  0  0
   -1.8737    0.4982   -0.7607 C   0  0  0  0  0  0  0  0  0  0  0  0
   -2.0109   -0.9709   -0.9800 C   0  0  0  0  0  0  0  0  0  0  0  0
   -1.8831   -1.4251   -2.2869 C   0  0  0  0  0  0  0  0  0  0  0  0
   -1.9370   -2.7827   -2.5720 C   0  0  0  0  0  0  0  0  0  0  0  0
   -1.7675   -3.2583   -3.9820 C   0  0  0  0  0  0  0  0  0  0  0  0
   -2.1368   -3.6772   -1.5287 C   0  0  0  0  0  0  0  0  0  0  0  0
   -2.2975   -3.2418   -0.2198 C   0  0  0  0  0  0  0  0  0  0  0  0
   -2.5067   -4.2119    0.9017 C   0  0  0  0  0  0  0  0  0  0  0  0
   -2.2342   -1.8804    0.0481 C   0  0  0  0  0  0  0  0  0  0  0  0
   -2.4918    1.3195   -1.3981 O   0  0  0  0  0  0  0  0  0  0  0  0
    0.0792    0.0312    0.7184 C   0  0  0  0  0  0  0  0  0  0  0  0
    0.0709    0.0003    2.2707 C   0  0  0  0  0  0  0  0  0  0  0  0
   -1.1514    0.1291    2.7896 O   0  0  0  0  0  0  0  0  0  0  0  0
    1.0424   -0.1988    2.9345 O   0  0  0  0  0  0  0  0  0  0  0  0
    1.2751    0.6392    0.1727 N   0  0  0  0  0  0  0  0  0  0  0  0
    2.5279    0.1105    0.1470 C   0  0  0  0  0  0  0  0  0  0  0  0
    2.6118   -1.3149    0.5897 C   0  0  0  0  0  0  0  0  0  0  0  0
    3.3649   -1.6426    1.7043 C   0  0  0  0  0  0  0  0  0  0  0  0
    3.4470   -2.9608    2.1360 C   0  0  0  0  0  0  0  0  0  0  0  0
    4.2366   -3.2939    3.3640 C   0  0  0  0  0  0  0  0  0  0  0  0
    2.7778   -3.9433    1.4222 C   0  0  0  0  0  0  0  0  0  0  0  0
    2.0432   -3.6388    0.2827 C   0  0  0  0  0  0  0  0  0  0  0  0
    1.3565   -4.7184   -0.4991 C   0  0  0  0  0  0  0  0  0  0  0  0
    1.9676   -2.3171   -0.1285 C   0  0  0  0  0  0  0  0  0  0  0  0
    3.4829    0.7585   -0.2260 O   0  0  0  0  0  0  0  0  0  0  0  0
    1.5975    5.7131   -2.9987 H   0  0  0  0  0  0  0  0  0  0  0  0
   -0.1855    5.7061   -2.8665 H   0  0  0  0  0  0  0  0  0  0  0  0
    0.8101    6.2591   -1.4975 H   0  0  0  0  0  0  0  0  0  0  0  0
    0.5790    4.1583   -4.4423 H   0  0  0  0  0  0  0  0  0  0  0  0
    0.5151    2.0836   -5.7225 H   0  0  0  0  0  0  0  0  0  0  0  0
    0.6735   -0.0991   -4.5756 H   0  0  0  0  0  0  0  0  0  0  0  0
    0.8981   -0.1761   -2.1298 H   0  0  0  0  0  0  0  0  0  0  0  0
    1.7064    2.6887   -0.0865 H   0  0  0  0  0  0  0  0  0  0  0  0
   -1.0577    2.8397   -0.4141 H   0  0  0  0  0  0  0  0  0  0  0  0
    1.6937    2.7989    1.9600 H   0  0  0  0  0  0  0  0  0  0  0  0
    1.5581    3.7603    4.1947 H   0  0  0  0  0  0  0  0  0  0  0  0
   -0.6404    4.3205    5.1741 H   0  0  0  0  0  0  0  0  0  0  0  0
   -2.6937    3.8660    3.9301 H   0  0  0  0  0  0  0  0  0  0  0  0
   -4.2940    2.5445    2.8502 H   0  0  0  0  0  0  0  0  0  0  0  0
   -4.1431    4.1454    2.0701 H   0  0  0  0  0  0  0  0  0  0  0  0
   -4.7237    2.7476    1.1315 H   0  0  0  0  0  0  0  0  0  0  0  0
   -1.7280   -0.7055   -3.0768 H   0  0  0  0  0  0  0  0  0  0  0  0
   -2.5098   -2.7922   -4.6288 H   0  0  0  0  0  0  0  0  0  0  0  0
   -1.8742   -4.3386   -4.0469 H   0  0  0  0  0  0  0  0  0  0  0  0
   -0.7818   -2.9826   -4.3568 H   0  0  0  0  0  0  0  0  0  0  0  0
   -2.1769   -4.7369   -1.7404 H   0  0  0  0  0  0  0  0  0  0  0  0
   -1.6636   -4.1724    1.5920 H   0  0  0  0  0  0  0  0  0  0  0  0
   -2.6009   -5.2279    0.5268 H   0  0  0  0  0  0  0  0  0  0  0  0
   -3.4064   -3.9597    1.4612 H   0  0  0  0  0  0  0  0  0  0  0  0
   -2.3766   -1.5395    1.0639 H   0  0  0  0  0  0  0  0  0  0  0  0
   -0.0297   -1.0128    0.3969 H   0  0  0  0  0  0  0  0  0  0  0  0
   -1.7763    0.4553    2.1127 H   0  0  0  0  0  0  0  0  0  0  0  0
    3.8698   -0.8608    2.2493 H   0  0  0  0  0  0  0  0  0  0  0  0
    5.2510   -2.9083    3.2786 H   0  0  0  0  0  0  0  0  0  0  0  0
    3.7765   -2.8289    4.2350 H   0  0  0  0  0  0  0  0  0  0  0  0
    4.2810   -4.3683    3.5240 H   0  0  0  0  0  0  0  0  0  0  0  0
    2.8316   -4.9716    1.7532 H   0  0  0  0  0  0  0  0  0  0  0  0
    2.0447   -5.1419   -1.2314 H   0  0  0  0  0  0  0  0  0  0  0  0
    0.4947   -4.3225   -1.0330 H   0  0  0  0  0  0  0  0  0  0  0  0
    1.0284   -5.5219    0.1568 H   0  0  0  0  0  0  0  0  0  0  0  0
    1.4153   -2.0780   -1.0285 H   0  0  0  0  0  0  0  0  0  0  0  0
  1  2  1  0  0  0  0
  2  3  1  0  0  0  0
  1  4  4  0  0  0  0
  4  5  4  0  0  0  0
  5  6  4  0  0  0  0
  6  7  4  0  0  0  0
  1  8  4  0  0  0  0
  7  8  4  0  0  0  0
  8  9  1  0  0  0  0
  9 10  1  0  0  0  0
 10 11  1  0  0  0  0
 11 12  4  0  0  0  0
 12 13  4  0  0  0  0
 13 14  4  0  0  0  0
 14 15  4  0  0  0  0
 11 16  4  0  0  0  0
 15 16  4  0  0  0  0
 16 17  1  0  0  0  0
 17 18  1  0  0  0  0
 10 19  1  0  0  0  0
 19 20  1  0  0  0  0
 20 21  1  0  0  0  0
 21 22  4  0  0  0  0
 22 23  4  0  0  0  0
 23 24  1  0  0  0  0
 23 25  4  0  0  0  0
 25 26  4  0  0  0  0
 26 27  1  0  0  0  0
 21 28  4  0  0  0  0
 26 28  4  0  0  0  0
 20 29  2  0  0  0  0
 19 30  1  0  0  0  0
 30 31  1  0  0  0  0
 31 32  1  0  0  0  0
 31 33  2  0  0  0  0
  9 34  1  0  0  0  0
 30 34  1  0  0  0  0
 34 35  1  0  0  0  0
 35 36  1  0  0  0  0
 36 37  4  0  0  0  0
 37 38  4  0  0  0  0
 38 39  1  0  0  0  0
 38 40  4  0  0  0  0
 40 41  4  0  0  0  0
 41 42  1  0  0  0  0
 36 43  4  0  0  0  0
 41 43  4  0  0  0  0
 35 44  2  0  0  0  0
  3 45  1  0  0  0  0
  3 46  1  0  0  0  0
  3 47  1  0  0  0  0
  4 48  1  0  0  0  0
  5 49  1  0  0  0  0
  6 50  1  0  0  0  0
  7 51  1  0  0  0  0
  9 52  1  0  0  0  0
 10 53  1  0  0  0  0
 12 54  1  0  0  0  0
 13 55  1  0  0  0  0
 14 56  1  0  0  0  0
 15 57  1  0  0  0  0
 18 58  1  0  0  0  0
 18 59  1  0  0  0  0
 18 60  1  0  0  0  0
 22 61  1  0  0  0  0
 24 62  1  0  0  0  0
 24 63  1  0  0  0  0
 24 64  1  0  0  0  0
 25 65  1  0  0  0  0
 27 66  1  0  0  0  0
 27 67  1  0  0  0  0
 27 68  1  0  0  0  0
 28 69  1  0  0  0  0
 30 70  1  0  0  0  0
 32 71  1  0  0  0  0
 37 72  1  0  0  0  0
 39 73  1  0  0  0  0
 39 74  1  0  0  0  0
 39 75  1  0  0  0  0
 40 76  1  0  0  0  0
 42 77  1  0  0  0  0
 42 78  1  0  0  0  0
 42 79  1  0  0  0  0
 43 80  1  0  0  0  0
M  END
