28

F     -5.275950    0.734879   -0.425221
C     -4.155718    0.206688    0.089775
C     -4.250991   -0.615899    1.208271
C     -3.108536   -1.209561    1.727167
C     -1.850669   -0.967497    1.159044
C     -1.747318   -0.088228    0.058230
C     -2.908340    0.464044   -0.510573
C     -2.523035    1.176992   -1.671226
C     -1.163214    1.048350   -1.797867
N     -0.660557    0.367703   -0.699390
C      0.746790    0.215610   -0.468478
N      1.570608    0.413190   -1.532907
C      2.901422    0.277725   -1.338111
C      3.479956   -0.039273   -0.118138
C      4.963938   -0.135987    0.034362
C      2.624789   -0.188582    0.971532
C      1.244838   -0.059562    0.799881
H     -5.224983   -0.806293    1.647645
H     -3.191324   -1.881227    2.579167
H     -0.989188   -1.489728    1.561757
H     -3.178334    1.699850   -2.355939
H     -0.489181    1.434909   -2.551920
H      3.507513    0.440673   -2.225711
H      5.381758    0.846203    0.275814
H      5.229345   -0.838295    0.831581
H      5.428612   -0.501002   -0.887650
H      3.024336   -0.390420    1.962711
H      0.613435   -0.115264    1.676194
