72

C      2.337987   -3.654191   -1.320421
C      3.535584   -4.346829   -1.133047
C      4.187551   -4.287652    0.096930
C      3.644052   -3.531751    1.133898
C      2.442891   -2.841337    0.946313
C      1.765156   -2.895389   -0.279786
C      0.453464   -2.163087   -0.538791
C     -0.594975   -2.243274    0.604620
C     -1.868366   -2.938925    0.126277
C     -2.285663   -4.123624    0.756840
C     -3.428612   -4.799157    0.320912
C     -4.168977   -4.298113   -0.749536
C     -3.774366   -3.120697   -1.382335
C     -2.630677   -2.445744   -0.948343
N     -0.831967   -0.854024    1.008754
C     -1.631888   -0.547458    2.095453
C     -1.842592    0.879403    2.428635
C     -2.631687    1.735576    1.620366
C     -3.378363    1.303469    0.496467
C     -4.114636    2.203138   -0.276536
C     -4.124537    3.553232    0.055495
C     -3.414476    3.998749    1.171656
C     -2.676898    3.107028    1.967392
C     -1.986752    3.565955    3.103847
C     -1.260492    2.689574    3.912220
C     -1.190797    1.342870    3.579285
O     -2.131573   -1.387150    2.836137
C      0.002949    0.078764    0.255114
C      1.072187    0.722914    1.179623
O      1.111633    2.070222    1.068942
O      1.832240    0.156342    1.952738
N      0.655063   -0.730350   -0.771364
C      1.077366   -0.274452   -2.003164
C      1.242794    1.178725   -2.190761
C      0.195345    1.863749   -2.819264
C      0.291076    3.236970   -3.009334
C      1.430044    3.918553   -2.578429
C      2.497838    3.240455   -1.963186
C      2.424336    1.839214   -1.771341
C      3.527832    1.187728   -1.169488
C      4.650751    1.902422   -0.745922
C      4.704913    3.280365   -0.925173
C      3.637873    3.943140   -1.535206
O      1.309106   -1.003836   -2.965435
H      1.851678   -3.700664   -2.296403
H      3.953057   -4.931358   -1.949196
H      5.119716   -4.822825    0.250358
H      4.151513   -3.481999    2.094678
H      2.052834   -2.261481    1.779393
H      0.035669   -2.587848   -1.460769
H     -0.213708   -2.774296    1.486077
H     -1.727667   -4.525012    1.602256
H     -3.740983   -5.713715    0.822729
H     -5.060268   -4.825991   -1.086698
H     -4.353952   -2.731838   -2.213583
H     -2.335608   -1.531761   -1.460151
H     -3.410533    0.248960    0.224756
H     -4.688769    1.846744   -1.129126
H     -4.699982    4.260566   -0.535557
H     -3.446236    5.054945    1.426658
H     -2.018466    4.620236    3.375364
H     -0.746881    3.060220    4.795326
H     -0.619601    0.653600    4.199821
H     -0.619792    0.852247   -0.199303
H      1.881600    2.333848    1.615992
H     -0.683758    1.327500   -3.165177
H     -0.518909    3.777780   -3.493406
H      1.480618    4.993758   -2.734355
H      3.525240    0.107592   -1.023495
H      5.486237    1.378451   -0.287074
H      5.579693    3.839139   -0.602702
H      3.705522    5.021688   -1.677464
