
  xtb     03162222273D
 xtb: 6.3.3 (4ae9cef)
 62 66  0     0  0            999 V2000
   -1.1358   -3.3597   -0.3327 C   0  0  0  0  0  0  0  0  0  0  0  0
   -1.8451   -2.9414   -1.4203 O   0  0  0  0  0  0  0  0  0  0  0  0
   -2.6679   -3.8682   -2.0846 C   0  0  0  0  0  0  0  0  0  0  0  0
   -1.2049   -4.6364    0.2108 C   0  0  0  0  0  0  0  0  0  0  0  0
   -0.4640   -4.9548    1.3369 C   0  0  0  0  0  0  0  0  0  0  0  0
    0.3426   -4.0085    1.9386 C   0  0  0  0  0  0  0  0  0  0  0  0
    0.4180   -2.7349    1.4006 C   0  0  0  0  0  0  0  0  0  0  0  0
   -0.3005   -2.4057    0.2649 C   0  0  0  0  0  0  0  0  0  0  0  0
   -0.2373   -1.0220   -0.3263 C   0  0  0  0  0  0  0  0  0  0  0  0
   -1.1298   -0.0334    0.4449 C   0  0  0  0  0  0  0  0  0  0  0  0
   -2.3209    0.4034   -0.3653 C   0  0  0  0  0  0  0  0  0  0  0  0
   -3.5822   -0.0651   -0.0448 C   0  0  0  0  0  0  0  0  0  0  0  0
   -4.6890    0.2927   -0.7947 C   0  0  0  0  0  0  0  0  0  0  0  0
   -4.5316    1.1392   -1.8742 C   0  0  0  0  0  0  0  0  0  0  0  0
   -3.2776    1.6197   -2.2125 C   0  0  0  0  0  0  0  0  0  0  0  0
   -2.1630    1.2518   -1.4705 C   0  0  0  0  0  0  0  0  0  0  0  0
   -0.8866    1.6627   -1.7482 O   0  0  0  0  0  0  0  0  0  0  0  0
   -0.6834    2.5288   -2.8367 C   0  0  0  0  0  0  0  0  0  0  0  0
   -0.2446    1.0731    0.7767 N   0  0  0  0  0  0  0  0  0  0  0  0
   -0.7075    2.1245    1.4954 C   0  0  0  0  0  0  0  0  0  0  0  0
    0.2967    3.1978    1.7474 C   0  0  0  0  0  0  0  0  0  0  0  0
    0.8081    4.0193    0.7906 C   0  0  0  0  0  0  0  0  0  0  0  0
    1.8955    5.1761    1.4430 S   0  0  0  0  0  0  0  0  0  0  0  0
    1.6575    4.5525    3.0267 C   0  0  0  0  0  0  0  0  0  0  0  0
    0.7809    3.5183    3.0431 C   0  0  0  0  0  0  0  0  0  0  0  0
   -1.8480    2.1835    1.9017 O   0  0  0  0  0  0  0  0  0  0  0  0
    1.1171    0.8610    0.3594 C   0  0  0  0  0  0  0  0  0  0  0  0
    2.0626    0.8848    1.5782 C   0  0  0  0  0  0  0  0  0  0  0  0
    2.9901    1.8337    1.4670 O   0  0  0  0  0  0  0  0  0  0  0  0
    1.9737    0.1473    2.5182 O   0  0  0  0  0  0  0  0  0  0  0  0
    1.0949   -0.4433   -0.2512 N   0  0  0  0  0  0  0  0  0  0  0  0
    2.1568   -1.0787   -0.8045 C   0  0  0  0  0  0  0  0  0  0  0  0
    3.4627   -0.3852   -0.5919 C   0  0  0  0  0  0  0  0  0  0  0  0
    3.9200    0.6759   -1.3088 C   0  0  0  0  0  0  0  0  0  0  0  0
    5.4808    1.1787   -0.7978 S   0  0  0  0  0  0  0  0  0  0  0  0
    5.5240   -0.0599    0.3927 C   0  0  0  0  0  0  0  0  0  0  0  0
    4.3984   -0.8161    0.3859 C   0  0  0  0  0  0  0  0  0  0  0  0
    2.0577   -2.1332   -1.3915 O   0  0  0  0  0  0  0  0  0  0  0  0
   -2.0914   -4.7137   -2.4725 H   0  0  0  0  0  0  0  0  0  0  0  0
   -3.4658   -4.2373   -1.4319 H   0  0  0  0  0  0  0  0  0  0  0  0
   -3.1109   -3.3215   -2.9159 H   0  0  0  0  0  0  0  0  0  0  0  0
   -1.8311   -5.3925   -0.2356 H   0  0  0  0  0  0  0  0  0  0  0  0
   -0.5266   -5.9532    1.7440 H   0  0  0  0  0  0  0  0  0  0  0  0
    0.9116   -4.2571    2.8211 H   0  0  0  0  0  0  0  0  0  0  0  0
    1.0418   -1.9872    1.8679 H   0  0  0  0  0  0  0  0  0  0  0  0
   -0.5423   -1.0795   -1.3774 H   0  0  0  0  0  0  0  0  0  0  0  0
   -1.4877   -0.4867    1.3783 H   0  0  0  0  0  0  0  0  0  0  0  0
   -3.6944   -0.7167    0.8083 H   0  0  0  0  0  0  0  0  0  0  0  0
   -5.6664   -0.0814   -0.5321 H   0  0  0  0  0  0  0  0  0  0  0  0
   -5.3861    1.4350   -2.4645 H   0  0  0  0  0  0  0  0  0  0  0  0
   -3.1825    2.2802   -3.0598 H   0  0  0  0  0  0  0  0  0  0  0  0
   -1.2105    3.4789   -2.7005 H   0  0  0  0  0  0  0  0  0  0  0  0
   -0.9955    2.0719   -3.7811 H   0  0  0  0  0  0  0  0  0  0  0  0
    0.3899    2.7149   -2.8724 H   0  0  0  0  0  0  0  0  0  0  0  0
    0.5952    4.0247   -0.2596 H   0  0  0  0  0  0  0  0  0  0  0  0
    2.1763    4.9975    3.8522 H   0  0  0  0  0  0  0  0  0  0  0  0
    0.4827    2.9867    3.9283 H   0  0  0  0  0  0  0  0  0  0  0  0
    1.4522    1.6349   -0.3495 H   0  0  0  0  0  0  0  0  0  0  0  0
    3.5776    1.8435    2.2409 H   0  0  0  0  0  0  0  0  0  0  0  0
    3.4392    1.1872   -2.1187 H   0  0  0  0  0  0  0  0  0  0  0  0
    6.3864   -0.1585    1.0213 H   0  0  0  0  0  0  0  0  0  0  0  0
    4.2198   -1.6479    1.0428 H   0  0  0  0  0  0  0  0  0  0  0  0
  1  2  1  0  0  0  0
  2  3  1  0  0  0  0
  1  4  4  0  0  0  0
  4  5  4  0  0  0  0
  5  6  4  0  0  0  0
  6  7  4  0  0  0  0
  1  8  4  0  0  0  0
  7  8  4  0  0  0  0
  8  9  1  0  0  0  0
  9 10  1  0  0  0  0
 10 11  1  0  0  0  0
 11 12  4  0  0  0  0
 12 13  4  0  0  0  0
 13 14  4  0  0  0  0
 14 15  4  0  0  0  0
 11 16  4  0  0  0  0
 15 16  4  0  0  0  0
 16 17  1  0  0  0  0
 17 18  1  0  0  0  0
 10 19  1  0  0  0  0
 19 20  4  0  0  0  0
 20 21  1  0  0  0  0
 21 22  2  0  0  0  0
 22 23  1  0  0  0  0
 23 24  1  0  0  0  0
 21 25  4  0  0  0  0
 24 25  2  0  0  0  0
 20 26  2  0  0  0  0
 19 27  1  0  0  0  0
 27 28  1  0  0  0  0
 28 29  1  0  0  0  0
 28 30  2  0  0  0  0
  9 31  1  0  0  0  0
 27 31  1  0  0  0  0
 31 32  4  0  0  0  0
 32 33  1  0  0  0  0
 33 34  2  0  0  0  0
 34 35  1  0  0  0  0
 35 36  1  0  0  0  0
 33 37  4  0  0  0  0
 36 37  2  0  0  0  0
 32 38  2  0  0  0  0
  3 39  1  0  0  0  0
  3 40  1  0  0  0  0
  3 41  1  0  0  0  0
  4 42  1  0  0  0  0
  5 43  1  0  0  0  0
  6 44  1  0  0  0  0
  7 45  1  0  0  0  0
  9 46  1  0  0  0  0
 10 47  1  0  0  0  0
 12 48  1  0  0  0  0
 13 49  1  0  0  0  0
 14 50  1  0  0  0  0
 15 51  1  0  0  0  0
 18 52  1  0  0  0  0
 18 53  1  0  0  0  0
 18 54  1  0  0  0  0
 22 55  1  0  0  0  0
 24 56  1  0  0  0  0
 25 57  1  0  0  0  0
 27 58  1  0  0  0  0
 29 59  1  0  0  0  0
 34 60  1  0  0  0  0
 36 61  1  0  0  0  0
 37 62  1  0  0  0  0
M  END
