72

C     -0.815178   -1.215737   -2.366047
O     -0.533580    0.118282   -2.517281
C     -1.072275    0.733288   -3.695168
C     -0.927997   -2.087063   -3.462013
C     -1.191307   -3.440704   -3.272615
C     -1.361821   -3.930728   -1.991604
C     -1.233347   -3.075018   -0.895654
C     -0.936257   -1.707974   -1.057099
C     -0.688431   -0.878625    0.209795
C      0.820639   -0.486626    0.357986
C      1.409433   -0.717537    1.760530
C      2.040063    0.322100    2.480133
C      2.613809    0.110109    3.732553
C      2.583397   -1.156543    4.291963
C      1.977772   -2.207342    3.603764
C      1.395268   -2.001237    2.347388
O      0.840025   -3.013118    1.602201
C      0.504901   -4.208235    2.301741
N      0.810667    0.940345   -0.018915
C      1.723395    1.608676   -0.805375
C      2.918203    0.871355   -1.265200
C      2.871099    0.237766   -2.510170
C      3.954317   -0.512014   -2.952382
C      5.098271   -0.612451   -2.158042
C      5.149800    0.048666   -0.927093
N      6.353887   -0.074523   -0.102529
O      6.256790    0.184323    1.104057
O      7.389310   -0.450465   -0.671473
C      4.060233    0.794074   -0.463440
O      1.575384    2.763355   -1.192911
C     -0.492545    1.528925    0.232916
C     -0.473543    2.271768    1.606400
O     -1.186851    1.642291    2.582473
O      0.170313    3.281493    1.848821
N     -1.421699    0.397372    0.242681
C     -2.803308    0.423174    0.201090
C     -3.507487    1.721327    0.172799
C     -4.399052    2.002201    1.215399
C     -5.095282    3.216472    1.208846
N     -6.039664    3.518300    2.291174
O     -6.322009    2.605390    3.075078
O     -6.502817    4.667179    2.344167
C     -4.911666    4.137595    0.161757
C     -4.043793    3.832999   -0.890918
C     -3.352585    2.618523   -0.894228
O     -3.490965   -0.586868    0.276041
H     -2.118953    0.437333   -3.838339
H     -1.030278    1.812477   -3.550572
H     -0.472621    0.485199   -4.579706
H     -0.778301   -1.749131   -4.480104
H     -1.264985   -4.110769   -4.125473
H     -1.561779   -4.989293   -1.832077
H     -1.361017   -3.493008    0.099672
H     -1.051894   -1.446798    1.075069
H      1.446824   -1.056245   -0.336389
H      2.099268    1.334934    2.086354
H      3.086544    0.938442    4.258682
H      3.044229   -1.333857    5.256591
H      2.005163   -3.189083    4.069903
H      1.403577   -4.760850    2.584059
H     -0.115110   -4.000014    3.181819
H     -0.080218   -4.841346    1.624425
H      1.986876    0.335839   -3.138938
H      3.912519   -1.016839   -3.914417
H      5.937326   -1.199837   -2.517100
H      4.098242    1.310679    0.488578
H     -0.766444    2.250160   -0.538197
H     -1.516139    0.775654    2.276773
H     -4.549872    1.270462    2.007559
H     -5.444864    5.088093    0.146640
H     -3.912655    4.542671   -1.710514
H     -2.708955    2.370585   -1.735896
