60

C      1.289256    2.453775   -1.816333
C      1.504332    1.236256   -2.685989
F      2.749543    0.705139   -2.544107
F      1.382357    1.496373   -4.021864
F      0.637729    0.215910   -2.455193
C      1.453906    3.706089   -2.461011
C      1.313743    4.914459   -1.782991
C      1.012544    4.905689   -0.433254
C      0.855389    3.689235    0.228243
C      0.991902    2.438597   -0.433086
C      0.751287    1.225031    0.476276
C     -0.778403    0.941692    0.658078
C     -1.290852    0.836278    2.109146
C     -2.671336    0.996649    2.417095
C     -3.735739    1.271071    1.367170
F     -4.955304    1.564410    1.908523
F     -3.438369    2.331954    0.572410
F     -3.952488    0.202581    0.556614
C     -3.102559    0.873595    3.757530
C     -2.208400    0.597011    4.786457
C     -0.865249    0.426034    4.494662
C     -0.414134    0.538260    3.177473
N     -0.967901   -0.336242   -0.039857
C     -1.756138   -0.376747   -1.194168
C     -1.949685   -1.674963   -1.824168
C     -2.254216   -2.895334   -1.251470
C     -2.353310   -3.940801   -2.215488
C     -2.144116   -3.480612   -3.495655
S     -1.845727   -1.797691   -3.530984
O     -2.260275    0.653223   -1.640246
C      0.282806   -1.093901    0.021470
C      0.286694   -2.022300    1.279082
O     -0.937114   -2.417273    1.693289
O      1.269544   -2.449659    1.865442
N      1.321368   -0.060309    0.080309
C      2.692739   -0.288285    0.145838
C      3.218318   -1.551011   -0.357443
C      2.908533   -2.256638   -1.506852
C      3.666767   -3.457366   -1.635015
C      4.553831   -3.617983   -0.595803
S      4.484513   -2.319277    0.512526
O      3.421439    0.588900    0.612496
H      1.698913    3.743408   -3.523595
H      1.443349    5.855924   -2.310489
H      0.902370    5.841294    0.108950
H      0.623183    3.723780    1.293474
H      1.233995    1.493967    1.421865
H     -1.341745    1.744329    0.176251
H     -4.157465    0.992896    4.006921
H     -2.562549    0.509311    5.810641
H     -0.160190    0.199247    5.291774
H      0.648918    0.363035    3.022777
H     -2.424960   -3.032366   -0.191258
H     -2.584697   -4.973510   -1.983687
H     -2.170241   -4.046432   -4.417151
H      0.419065   -1.725176   -0.855740
H     -0.760011   -2.955526    2.493923
H      2.189341   -1.923369   -2.245319
H      3.579229   -4.157084   -2.457411
H      5.256270   -4.425549   -0.441078
