
  xtb     03172202023D
 xtb: 6.3.3 (4ae9cef)
 60 64  0     0  0            999 V2000
    1.2546    2.2485   -2.0069 C   0  0  0  0  0  0  0  0  0  0  0  0
    1.7893    0.9727   -2.5977 C   0  0  0  0  0  0  0  0  0  0  0  0
    2.9266    0.5537   -2.0174 F   0  0  0  0  0  0  0  0  0  0  0  0
    2.0853    1.0885   -3.9022 F   0  0  0  0  0  0  0  0  0  0  0  0
    0.9295   -0.0666   -2.5398 F   0  0  0  0  0  0  0  0  0  0  0  0
    1.2247    3.3519   -2.8610 C   0  0  0  0  0  0  0  0  0  0  0  0
    0.7961    4.5860   -2.4216 C   0  0  0  0  0  0  0  0  0  0  0  0
    0.4031    4.7361   -1.1029 C   0  0  0  0  0  0  0  0  0  0  0  0
    0.4318    3.6485   -0.2572 C   0  0  0  0  0  0  0  0  0  0  0  0
    0.8411    2.3819   -0.6810 C   0  0  0  0  0  0  0  0  0  0  0  0
    0.7462    1.3298    0.4093 C   0  0  0  0  0  0  0  0  0  0  0  0
   -0.7400    1.0739    0.7464 C   0  0  0  0  0  0  0  0  0  0  0  0
   -1.0404    0.7680    2.1988 C   0  0  0  0  0  0  0  0  0  0  0  0
   -2.3664    0.6851    2.6487 C   0  0  0  0  0  0  0  0  0  0  0  0
   -3.5353    0.9558    1.7339 C   0  0  0  0  0  0  0  0  0  0  0  0
   -4.7087    0.9346    2.3888 F   0  0  0  0  0  0  0  0  0  0  0  0
   -3.4729    2.1656    1.1535 F   0  0  0  0  0  0  0  0  0  0  0  0
   -3.6602    0.0489    0.7516 F   0  0  0  0  0  0  0  0  0  0  0  0
   -2.6498    0.3561    3.9685 C   0  0  0  0  0  0  0  0  0  0  0  0
   -1.6269    0.1089    4.8657 C   0  0  0  0  0  0  0  0  0  0  0  0
   -0.3154    0.1986    4.4395 C   0  0  0  0  0  0  0  0  0  0  0  0
   -0.0303    0.5232    3.1240 C   0  0  0  0  0  0  0  0  0  0  0  0
   -1.0291   -0.1037   -0.0718 N   0  0  0  0  0  0  0  0  0  0  0  0
   -1.6886    0.1126   -1.2779 C   0  0  0  0  0  0  0  0  0  0  0  0
   -1.9076   -1.0760   -2.0946 C   0  0  0  0  0  0  0  0  0  0  0  0
   -2.0368   -2.3930   -1.7345 C   0  0  0  0  0  0  0  0  0  0  0  0
   -2.3224   -3.2260   -2.8298 C   0  0  0  0  0  0  0  0  0  0  0  0
   -2.4080   -2.5337   -4.0004 C   0  0  0  0  0  0  0  0  0  0  0  0
   -2.1636   -0.8534   -3.7903 S   0  0  0  0  0  0  0  0  0  0  0  0
   -2.1017    1.2095   -1.5853 O   0  0  0  0  0  0  0  0  0  0  0  0
    0.1332   -0.9418    0.0346 C   0  0  0  0  0  0  0  0  0  0  0  0
    0.0663   -1.8294    1.2909 C   0  0  0  0  0  0  0  0  0  0  0  0
   -1.1297   -2.3950    1.4212 O   0  0  0  0  0  0  0  0  0  0  0  0
    0.9770   -2.0264    2.0441 O   0  0  0  0  0  0  0  0  0  0  0  0
    1.2490   -0.0048    0.1064 N   0  0  0  0  0  0  0  0  0  0  0  0
    2.5160   -0.3274    0.5542 C   0  0  0  0  0  0  0  0  0  0  0  0
    3.0358   -1.6445    0.1909 C   0  0  0  0  0  0  0  0  0  0  0  0
    2.7769   -2.4730   -0.8683 C   0  0  0  0  0  0  0  0  0  0  0  0
    3.5910   -3.6197   -0.8713 C   0  0  0  0  0  0  0  0  0  0  0  0
    4.4550   -3.6462    0.1808 C   0  0  0  0  0  0  0  0  0  0  0  0
    4.3055   -2.2678    1.1832 S   0  0  0  0  0  0  0  0  0  0  0  0
    3.1825    0.4859    1.1639 O   0  0  0  0  0  0  0  0  0  0  0  0
    1.5426    3.2354   -3.8850 H   0  0  0  0  0  0  0  0  0  0  0  0
    0.7765    5.4224   -3.1019 H   0  0  0  0  0  0  0  0  0  0  0  0
    0.0749    5.6956   -0.7343 H   0  0  0  0  0  0  0  0  0  0  0  0
    0.1273    3.7721    0.7719 H   0  0  0  0  0  0  0  0  0  0  0  0
    1.3147    1.7299    1.2562 H   0  0  0  0  0  0  0  0  0  0  0  0
   -1.3684    1.8909    0.3825 H   0  0  0  0  0  0  0  0  0  0  0  0
   -3.6765    0.2975    4.2944 H   0  0  0  0  0  0  0  0  0  0  0  0
   -1.8583   -0.1460    5.8880 H   0  0  0  0  0  0  0  0  0  0  0  0
    0.4970    0.0113    5.1239 H   0  0  0  0  0  0  0  0  0  0  0  0
    1.0068    0.5642    2.8343 H   0  0  0  0  0  0  0  0  0  0  0  0
   -1.9720   -2.7353   -0.7183 H   0  0  0  0  0  0  0  0  0  0  0  0
   -2.4603   -4.2895   -2.7519 H   0  0  0  0  0  0  0  0  0  0  0  0
   -2.6059   -2.9225   -4.9797 H   0  0  0  0  0  0  0  0  0  0  0  0
    0.2006   -1.6126   -0.8283 H   0  0  0  0  0  0  0  0  0  0  0  0
   -1.1609   -2.9613    2.2105 H   0  0  0  0  0  0  0  0  0  0  0  0
    2.0659   -2.2596   -1.6454 H   0  0  0  0  0  0  0  0  0  0  0  0
    3.5378   -4.3857   -1.6242 H   0  0  0  0  0  0  0  0  0  0  0  0
    5.1758   -4.4028    0.4202 H   0  0  0  0  0  0  0  0  0  0  0  0
  1  2  1  0  0  0  0
  2  3  1  0  0  0  0
  2  4  1  0  0  0  0
  2  5  1  0  0  0  0
  1  6  4  0  0  0  0
  6  7  4  0  0  0  0
  7  8  4  0  0  0  0
  8  9  4  0  0  0  0
  1 10  4  0  0  0  0
  9 10  4  0  0  0  0
 10 11  1  0  0  0  0
 11 12  1  0  0  0  0
 12 13  1  0  0  0  0
 13 14  4  0  0  0  0
 14 15  1  0  0  0  0
 15 16  1  0  0  0  0
 15 17  1  0  0  0  0
 15 18  1  0  0  0  0
 14 19  4  0  0  0  0
 19 20  4  0  0  0  0
 20 21  4  0  0  0  0
 13 22  4  0  0  0  0
 21 22  4  0  0  0  0
 12 23  1  0  0  0  0
 23 24  1  0  0  0  0
 24 25  1  0  0  0  0
 25 26  2  0  0  0  0
 26 27  4  0  0  0  0
 27 28  2  0  0  0  0
 25 29  1  0  0  0  0
 28 29  1  0  0  0  0
 24 30  2  0  0  0  0
 23 31  1  0  0  0  0
 31 32  1  0  0  0  0
 32 33  1  0  0  0  0
 32 34  2  0  0  0  0
 11 35  1  0  0  0  0
 31 35  1  0  0  0  0
 35 36  1  0  0  0  0
 36 37  1  0  0  0  0
 37 38  2  0  0  0  0
 38 39  4  0  0  0  0
 39 40  2  0  0  0  0
 37 41  1  0  0  0  0
 40 41  1  0  0  0  0
 36 42  2  0  0  0  0
  6 43  1  0  0  0  0
  7 44  1  0  0  0  0
  8 45  1  0  0  0  0
  9 46  1  0  0  0  0
 11 47  1  0  0  0  0
 12 48  1  0  0  0  0
 19 49  1  0  0  0  0
 20 50  1  0  0  0  0
 21 51  1  0  0  0  0
 22 52  1  0  0  0  0
 26 53  1  0  0  0  0
 27 54  1  0  0  0  0
 28 55  1  0  0  0  0
 31 56  1  0  0  0  0
 33 57  1  0  0  0  0
 38 58  1  0  0  0  0
 39 59  1  0  0  0  0
 40 60  1  0  0  0  0
M  END
