32

C     -5.849389   -0.324237    0.590910
O     -4.735174   -1.201088    0.699713
C     -3.510847   -0.688926    0.364861
C     -3.265639    0.599836   -0.112246
C     -1.945689    0.998817   -0.425227
C     -0.879070    0.110677   -0.215413
N      0.298259    0.789031   -0.555971
C     -0.059568    2.005586   -1.116052
C     -1.413422    2.184269   -0.988122
C      1.666718    0.391065   -0.394346
N      2.593440    1.052721   -1.139500
C      3.889843    0.695493   -1.001259
C      4.335638   -0.295072   -0.138903
C      5.790540   -0.612902   -0.008908
C      3.379012   -0.926498    0.652924
C      2.031220   -0.582587    0.528511
C     -1.134063   -1.207018    0.211629
C     -2.451398   -1.578934    0.506817
H     -5.736049    0.543576    1.249121
H     -6.008161   -0.015958   -0.447712
H     -6.739157   -0.872976    0.914415
H     -4.065502    1.312292   -0.275520
H      0.702247    2.667446   -1.507945
H     -1.964561    3.062796   -1.296537
H      4.581931    1.253339   -1.626922
H      6.310568   -0.459852   -0.960442
H      6.248690    0.027412    0.751134
H      5.937298   -1.659961    0.276347
H      3.674182   -1.678032    1.381511
H      1.321717   -1.043117    1.202612
H     -0.352181   -1.953646    0.290835
H     -2.651433   -2.593551    0.845881
