
  xtb     03172202203D
 xtb: 6.3.3 (4ae9cef)
 32 34  0     0  0            999 V2000
   -5.8203   -0.3861    0.4516 C   0  0  0  0  0  0  0  0  0  0  0  0
   -4.6894   -1.2022    0.6173 O   0  0  0  0  0  0  0  0  0  0  0  0
   -3.4618   -0.6714    0.3288 C   0  0  0  0  0  0  0  0  0  0  0  0
   -3.2444    0.6112   -0.1367 C   0  0  0  0  0  0  0  0  0  0  0  0
   -1.9309    1.0136   -0.3774 C   0  0  0  0  0  0  0  0  0  0  0  0
   -0.8476    0.1406   -0.1267 C   0  0  0  0  0  0  0  0  0  0  0  0
    0.3147    0.8073   -0.4622 N   0  0  0  0  0  0  0  0  0  0  0  0
   -0.0305    2.0505   -0.9412 C   0  0  0  0  0  0  0  0  0  0  0  0
   -1.3750    2.2213   -0.8913 C   0  0  0  0  0  0  0  0  0  0  0  0
    1.6314    0.3891   -0.3283 C   0  0  0  0  0  0  0  0  0  0  0  0
    2.4915    0.9127   -1.1952 N   0  0  0  0  0  0  0  0  0  0  0  0
    3.7627    0.5698   -1.1173 C   0  0  0  0  0  0  0  0  0  0  0  0
    4.2744   -0.3157   -0.1772 C   0  0  0  0  0  0  0  0  0  0  0  0
    5.7280   -0.6639   -0.1289 C   0  0  0  0  0  0  0  0  0  0  0  0
    3.3703   -0.8361    0.7462 C   0  0  0  0  0  0  0  0  0  0  0  0
    2.0374   -0.4839    0.6845 C   0  0  0  0  0  0  0  0  0  0  0  0
   -1.0809   -1.1638    0.2939 C   0  0  0  0  0  0  0  0  0  0  0  0
   -2.3816   -1.5498    0.5213 C   0  0  0  0  0  0  0  0  0  0  0  0
   -5.7717    0.5037    1.0886 H   0  0  0  0  0  0  0  0  0  0  0  0
   -5.9457   -0.0774   -0.5918 H   0  0  0  0  0  0  0  0  0  0  0  0
   -6.6720   -0.9957    0.7503 H   0  0  0  0  0  0  0  0  0  0  0  0
   -4.0515    1.2996   -0.3300 H   0  0  0  0  0  0  0  0  0  0  0  0
    0.7425    2.7183   -1.2665 H   0  0  0  0  0  0  0  0  0  0  0  0
   -1.9198    3.0971   -1.1833 H   0  0  0  0  0  0  0  0  0  0  0  0
    4.4081    1.0316   -1.8534 H   0  0  0  0  0  0  0  0  0  0  0  0
    6.2084   -0.4499   -1.0805 H   0  0  0  0  0  0  0  0  0  0  0  0
    6.2269   -0.0788    0.6444 H   0  0  0  0  0  0  0  0  0  0  0  0
    5.8634   -1.7171    0.1088 H   0  0  0  0  0  0  0  0  0  0  0  0
    3.7170   -1.5059    1.5211 H   0  0  0  0  0  0  0  0  0  0  0  0
    1.3352   -0.8400    1.4198 H   0  0  0  0  0  0  0  0  0  0  0  0
   -0.2815   -1.8773    0.4173 H   0  0  0  0  0  0  0  0  0  0  0  0
   -2.6074   -2.5517    0.8500 H   0  0  0  0  0  0  0  0  0  0  0  0
  1  2  1  0  0  0  0
  2  3  1  0  0  0  0
  3  4  4  0  0  0  0
  4  5  4  0  0  0  0
  5  6  4  0  0  0  0
  6  7  1  0  0  0  0
  7  8  1  0  0  0  0
  5  9  4  0  0  0  0
  8  9  2  0  0  0  0
  7 10  1  0  0  0  0
 10 11  4  0  0  0  0
 11 12  4  0  0  0  0
 12 13  4  0  0  0  0
 13 14  1  0  0  0  0
 13 15  4  0  0  0  0
 10 16  4  0  0  0  0
 15 16  4  0  0  0  0
  6 17  4  0  0  0  0
  3 18  4  0  0  0  0
 17 18  2  0  0  0  0
  1 19  1  0  0  0  0
  1 20  1  0  0  0  0
  1 21  1  0  0  0  0
  4 22  1  0  0  0  0
  8 23  1  0  0  0  0
  9 24  1  0  0  0  0
 12 25  1  0  0  0  0
 14 26  1  0  0  0  0
 14 27  1  0  0  0  0
 14 28  1  0  0  0  0
 15 29  1  0  0  0  0
 16 30  1  0  0  0  0
 17 31  1  0  0  0  0
 18 32  1  0  0  0  0
M  END
