
  xtb     03172201513D
 xtb: 6.3.3 (4ae9cef)
 62 66  0     0  0            999 V2000
   -2.0076    0.5780   -1.2497 C   0  0  0  0  0  0  0  0  0  0  0  0
   -1.0801    1.4846   -1.6633 O   0  0  0  0  0  0  0  0  0  0  0  0
   -1.2736    2.1408   -2.8967 C   0  0  0  0  0  0  0  0  0  0  0  0
   -3.1884    0.3042   -1.9326 C   0  0  0  0  0  0  0  0  0  0  0  0
   -4.0782   -0.6382   -1.4485 C   0  0  0  0  0  0  0  0  0  0  0  0
   -3.8097   -1.3178   -0.2756 C   0  0  0  0  0  0  0  0  0  0  0  0
   -2.6427   -1.0426    0.4137 C   0  0  0  0  0  0  0  0  0  0  0  0
   -1.7388   -0.1025   -0.0527 C   0  0  0  0  0  0  0  0  0  0  0  0
   -0.4475    0.0954    0.6949 C   0  0  0  0  0  0  0  0  0  0  0  0
    0.6871   -0.7248    0.0452 C   0  0  0  0  0  0  0  0  0  0  0  0
    0.8147   -2.0730    0.6961 C   0  0  0  0  0  0  0  0  0  0  0  0
    1.5133   -2.2411    1.8778 C   0  0  0  0  0  0  0  0  0  0  0  0
    1.5950   -3.4837    2.4827 C   0  0  0  0  0  0  0  0  0  0  0  0
    0.9615   -4.5648    1.9010 C   0  0  0  0  0  0  0  0  0  0  0  0
    0.2435   -4.4124    0.7263 C   0  0  0  0  0  0  0  0  0  0  0  0
    0.1589   -3.1677    0.1148 C   0  0  0  0  0  0  0  0  0  0  0  0
   -0.5432   -2.9114   -1.0249 O   0  0  0  0  0  0  0  0  0  0  0  0
   -1.1865   -3.9782   -1.6766 C   0  0  0  0  0  0  0  0  0  0  0  0
    1.8619    0.1188    0.2189 N   0  0  0  0  0  0  0  0  0  0  0  0
    3.0477   -0.3358   -0.3033 C   0  0  0  0  0  0  0  0  0  0  0  0
    4.1897    0.5859   -0.3287 C   0  0  0  0  0  0  0  0  0  0  0  0
    5.4316    0.3251   -0.8523 C   0  0  0  0  0  0  0  0  0  0  0  0
    6.1902    1.5016   -0.6838 C   0  0  0  0  0  0  0  0  0  0  0  0
    5.3623    2.3928   -0.0710 C   0  0  0  0  0  0  0  0  0  0  0  0
    4.1549    1.8535    0.1495 O   0  0  0  0  0  0  0  0  0  0  0  0
    3.1768   -1.4898   -0.6631 O   0  0  0  0  0  0  0  0  0  0  0  0
    1.4509    1.4950    0.2394 C   0  0  0  0  0  0  0  0  0  0  0  0
    1.6109    2.1359   -1.1807 C   0  0  0  0  0  0  0  0  0  0  0  0
    1.2924    3.4073   -1.2523 O   0  0  0  0  0  0  0  0  0  0  0  0
    2.0423    1.5005   -2.1001 O   0  0  0  0  0  0  0  0  0  0  0  0
    0.0710    1.4511    0.6957 N   0  0  0  0  0  0  0  0  0  0  0  0
   -0.5582    2.5708    1.0844 C   0  0  0  0  0  0  0  0  0  0  0  0
   -1.8833    2.4866    1.6921 C   0  0  0  0  0  0  0  0  0  0  0  0
   -2.7651    3.5265    1.8738 C   0  0  0  0  0  0  0  0  0  0  0  0
   -3.8968    2.9766    2.5062 C   0  0  0  0  0  0  0  0  0  0  0  0
   -3.6217    1.6506    2.6721 C   0  0  0  0  0  0  0  0  0  0  0  0
   -2.4145    1.3464    2.1878 O   0  0  0  0  0  0  0  0  0  0  0  0
   -0.0332    3.6840    0.9394 O   0  0  0  0  0  0  0  0  0  0  0  0
   -1.3410    1.4253   -3.7207 H   0  0  0  0  0  0  0  0  0  0  0  0
   -0.3942    2.7664   -3.0362 H   0  0  0  0  0  0  0  0  0  0  0  0
   -2.1684    2.7707   -2.8756 H   0  0  0  0  0  0  0  0  0  0  0  0
   -3.4181    0.8184   -2.8518 H   0  0  0  0  0  0  0  0  0  0  0  0
   -4.9854   -0.8391   -1.9986 H   0  0  0  0  0  0  0  0  0  0  0  0
   -4.5012   -2.0564    0.0995 H   0  0  0  0  0  0  0  0  0  0  0  0
   -2.4179   -1.5686    1.3299 H   0  0  0  0  0  0  0  0  0  0  0  0
   -0.5804   -0.2360    1.7337 H   0  0  0  0  0  0  0  0  0  0  0  0
    0.4903   -0.8655   -1.0251 H   0  0  0  0  0  0  0  0  0  0  0  0
    2.0120   -1.3899    2.3173 H   0  0  0  0  0  0  0  0  0  0  0  0
    2.1518   -3.6052    3.3990 H   0  0  0  0  0  0  0  0  0  0  0  0
    1.0210   -5.5406    2.3599 H   0  0  0  0  0  0  0  0  0  0  0  0
   -0.2435   -5.2722    0.2938 H   0  0  0  0  0  0  0  0  0  0  0  0
   -0.4749   -4.7494   -1.9872 H   0  0  0  0  0  0  0  0  0  0  0  0
   -1.6534   -3.5419   -2.5584 H   0  0  0  0  0  0  0  0  0  0  0  0
   -1.9612   -4.4256   -1.0448 H   0  0  0  0  0  0  0  0  0  0  0  0
    5.7357   -0.5984   -1.2988 H   0  0  0  0  0  0  0  0  0  0  0  0
    7.2063    1.6645   -0.9782 H   0  0  0  0  0  0  0  0  0  0  0  0
    5.5087    3.4058    0.2498 H   0  0  0  0  0  0  0  0  0  0  0  0
    2.0439    2.0950    0.9467 H   0  0  0  0  0  0  0  0  0  0  0  0
    0.8602    3.7270   -0.4007 H   0  0  0  0  0  0  0  0  0  0  0  0
   -2.6013    4.5434    1.5825 H   0  0  0  0  0  0  0  0  0  0  0  0
   -4.7876    3.4925    2.7993 H   0  0  0  0  0  0  0  0  0  0  0  0
   -4.1885    0.8517    3.1088 H   0  0  0  0  0  0  0  0  0  0  0  0
  1  2  1  0  0  0  0
  2  3  1  0  0  0  0
  1  4  4  0  0  0  0
  4  5  4  0  0  0  0
  5  6  4  0  0  0  0
  6  7  4  0  0  0  0
  1  8  4  0  0  0  0
  7  8  4  0  0  0  0
  8  9  1  0  0  0  0
  9 10  1  0  0  0  0
 10 11  1  0  0  0  0
 11 12  4  0  0  0  0
 12 13  4  0  0  0  0
 13 14  4  0  0  0  0
 14 15  4  0  0  0  0
 11 16  4  0  0  0  0
 15 16  4  0  0  0  0
 16 17  1  0  0  0  0
 17 18  1  0  0  0  0
 10 19  1  0  0  0  0
 19 20  1  0  0  0  0
 20 21  1  0  0  0  0
 21 22  2  0  0  0  0
 22 23  4  0  0  0  0
 23 24  2  0  0  0  0
 21 25  1  0  0  0  0
 24 25  1  0  0  0  0
 20 26  2  0  0  0  0
 19 27  1  0  0  0  0
 27 28  1  0  0  0  0
 28 29  4  0  0  0  0
 28 30  2  0  0  0  0
  9 31  1  0  0  0  0
 27 31  1  0  0  0  0
 31 32  4  0  0  0  0
 32 33  1  0  0  0  0
 33 34  2  0  0  0  0
 34 35  4  0  0  0  0
 35 36  2  0  0  0  0
 33 37  1  0  0  0  0
 36 37  1  0  0  0  0
 32 38  2  0  0  0  0
  3 39  1  0  0  0  0
  3 40  1  0  0  0  0
  3 41  1  0  0  0  0
  4 42  1  0  0  0  0
  5 43  1  0  0  0  0
  6 44  1  0  0  0  0
  7 45  1  0  0  0  0
  9 46  1  0  0  0  0
 10 47  1  0  0  0  0
 12 48  1  0  0  0  0
 13 49  1  0  0  0  0
 14 50  1  0  0  0  0
 15 51  1  0  0  0  0
 18 52  1  0  0  0  0
 18 53  1  0  0  0  0
 18 54  1  0  0  0  0
 22 55  1  0  0  0  0
 23 56  1  0  0  0  0
 24 57  1  0  0  0  0
 27 58  1  0  0  0  0
 29 59  1  0  0  0  0
 34 60  1  0  0  0  0
 35 61  1  0  0  0  0
 36 62  1  0  0  0  0
M  END
