
  xtb     03162223543D
 xtb: 6.3.3 (4ae9cef)
 62 67  0     0  0            999 V2000
    3.6479    1.2533   -1.2832 C   0  0  0  0  0  0  0  0  0  0  0  0
    4.6508    0.6743   -2.0070 C   0  0  0  0  0  0  0  0  0  0  0  0
    5.6178   -0.1408   -1.3811 C   0  0  0  0  0  0  0  0  0  0  0  0
    6.6600   -0.7577   -2.1037 C   0  0  0  0  0  0  0  0  0  0  0  0
    7.5875   -1.5326   -1.4656 C   0  0  0  0  0  0  0  0  0  0  0  0
    7.5153   -1.7271   -0.0770 C   0  0  0  0  0  0  0  0  0  0  0  0
    6.5170   -1.1438    0.6515 C   0  0  0  0  0  0  0  0  0  0  0  0
    5.5447   -0.3376    0.0233 C   0  0  0  0  0  0  0  0  0  0  0  0
    4.5064    0.2822    0.7478 C   0  0  0  0  0  0  0  0  0  0  0  0
    3.5662    1.0471    0.1088 C   0  0  0  0  0  0  0  0  0  0  0  0
    2.4973    1.7258    0.8986 C   0  0  0  0  0  0  0  0  0  0  0  0
    1.2322    1.2753    0.6934 N   0  0  0  0  0  0  0  0  0  0  0  0
    0.1528    1.9322    1.3898 C   0  0  0  0  0  0  0  0  0  0  0  0
    0.1855    1.6030    2.9087 C   0  0  0  0  0  0  0  0  0  0  0  0
   -0.6002    2.3699    3.6427 O   0  0  0  0  0  0  0  0  0  0  0  0
    0.8241    0.6895    3.3435 O   0  0  0  0  0  0  0  0  0  0  0  0
   -1.0615    1.3804    0.8046 N   0  0  0  0  0  0  0  0  0  0  0  0
   -2.2348    2.0066    1.0203 C   0  0  0  0  0  0  0  0  0  0  0  0
   -3.4694    1.3737    0.4847 C   0  0  0  0  0  0  0  0  0  0  0  0
   -3.9663    0.2361    1.0678 C   0  0  0  0  0  0  0  0  0  0  0  0
   -5.1734   -0.3348    0.6161 C   0  0  0  0  0  0  0  0  0  0  0  0
   -5.7065   -1.5076    1.1912 C   0  0  0  0  0  0  0  0  0  0  0  0
   -6.8739   -2.0431    0.7244 C   0  0  0  0  0  0  0  0  0  0  0  0
   -7.5613   -1.4315   -0.3363 C   0  0  0  0  0  0  0  0  0  0  0  0
   -7.0712   -0.2932   -0.9127 C   0  0  0  0  0  0  0  0  0  0  0  0
   -5.8693    0.2856   -0.4551 C   0  0  0  0  0  0  0  0  0  0  0  0
   -5.3419    1.4661   -1.0198 C   0  0  0  0  0  0  0  0  0  0  0  0
   -4.1764    2.0057   -0.5563 C   0  0  0  0  0  0  0  0  0  0  0  0
   -2.2680    3.0624    1.6455 O   0  0  0  0  0  0  0  0  0  0  0  0
   -0.7212    0.0759    0.2630 C   0  0  0  0  0  0  0  0  0  0  0  0
    0.7182    0.2840   -0.2277 C   0  0  0  0  0  0  0  0  0  0  0  0
    1.4119   -1.0759   -0.2751 C   0  0  0  0  0  0  0  0  0  0  0  0
    0.4043   -2.1326   -0.7673 C   0  0  0  0  0  0  0  0  0  0  0  0
   -0.6738   -1.5100   -1.6571 C   0  0  0  0  0  0  0  0  0  0  0  0
   -1.5483   -0.5081   -0.8768 C   0  0  0  0  0  0  0  0  0  0  0  0
    2.7165    2.6376    1.6691 O   0  0  0  0  0  0  0  0  0  0  0  0
    2.9197    1.8886   -1.7666 H   0  0  0  0  0  0  0  0  0  0  0  0
    4.7202    0.8364   -3.0734 H   0  0  0  0  0  0  0  0  0  0  0  0
    6.7126   -0.6039   -3.1723 H   0  0  0  0  0  0  0  0  0  0  0  0
    8.3843   -2.0005   -2.0250 H   0  0  0  0  0  0  0  0  0  0  0  0
    8.2584   -2.3414    0.4099 H   0  0  0  0  0  0  0  0  0  0  0  0
    6.4571   -1.2876    1.7204 H   0  0  0  0  0  0  0  0  0  0  0  0
    4.4499    0.1458    1.8176 H   0  0  0  0  0  0  0  0  0  0  0  0
    0.1928    3.0236    1.2541 H   0  0  0  0  0  0  0  0  0  0  0  0
   -1.1728    2.9559    3.0916 H   0  0  0  0  0  0  0  0  0  0  0  0
   -3.4424   -0.2305    1.8907 H   0  0  0  0  0  0  0  0  0  0  0  0
   -5.1745   -1.9731    2.0085 H   0  0  0  0  0  0  0  0  0  0  0  0
   -7.2776   -2.9405    1.1691 H   0  0  0  0  0  0  0  0  0  0  0  0
   -8.4830   -1.8685   -0.6909 H   0  0  0  0  0  0  0  0  0  0  0  0
   -7.5982    0.1821   -1.7275 H   0  0  0  0  0  0  0  0  0  0  0  0
   -5.8825    1.9430   -1.8244 H   0  0  0  0  0  0  0  0  0  0  0  0
   -3.7803    2.9176   -0.9772 H   0  0  0  0  0  0  0  0  0  0  0  0
   -0.6961   -0.6303    1.1048 H   0  0  0  0  0  0  0  0  0  0  0  0
    0.6916    0.7226   -1.2360 H   0  0  0  0  0  0  0  0  0  0  0  0
    2.2697   -1.0351   -0.9454 H   0  0  0  0  0  0  0  0  0  0  0  0
    1.7745   -1.3319    0.7206 H   0  0  0  0  0  0  0  0  0  0  0  0
    0.9346   -2.9038   -1.3263 H   0  0  0  0  0  0  0  0  0  0  0  0
   -0.0772   -2.6215    0.0805 H   0  0  0  0  0  0  0  0  0  0  0  0
   -0.1908   -1.0144   -2.5003 H   0  0  0  0  0  0  0  0  0  0  0  0
   -1.3096   -2.2961   -2.0652 H   0  0  0  0  0  0  0  0  0  0  0  0
   -1.8907    0.2873   -1.5401 H   0  0  0  0  0  0  0  0  0  0  0  0
   -2.4289   -1.0141   -0.4829 H   0  0  0  0  0  0  0  0  0  0  0  0
  1  2  2  0  0  0  0
  2  3  4  0  0  0  0
  3  4  4  0  0  0  0
  4  5  2  0  0  0  0
  5  6  4  0  0  0  0
  6  7  2  0  0  0  0
  3  8  4  0  0  0  0
  7  8  4  0  0  0  0
  8  9  4  0  0  0  0
  1 10  4  0  0  0  0
  9 10  2  0  0  0  0
 10 11  1  0  0  0  0
 11 12  4  0  0  0  0
 12 13  1  0  0  0  0
 13 14  1  0  0  0  0
 14 15  1  0  0  0  0
 14 16  2  0  0  0  0
 13 17  1  0  0  0  0
 17 18  4  0  0  0  0
 18 19  1  0  0  0  0
 19 20  2  0  0  0  0
 20 21  4  0  0  0  0
 21 22  4  0  0  0  0
 22 23  2  0  0  0  0
 23 24  4  0  0  0  0
 24 25  2  0  0  0  0
 21 26  4  0  0  0  0
 25 26  4  0  0  0  0
 26 27  4  0  0  0  0
 19 28  4  0  0  0  0
 27 28  2  0  0  0  0
 18 29  2  0  0  0  0
 17 30  1  0  0  0  0
 12 31  1  0  0  0  0
 30 31  1  0  0  0  0
 31 32  1  0  0  0  0
 32 33  1  0  0  0  0
 33 34  1  0  0  0  0
 30 35  1  0  0  0  0
 34 35  1  0  0  0  0
 11 36  2  0  0  0  0
  1 37  1  0  0  0  0
  2 38  1  0  0  0  0
  4 39  1  0  0  0  0
  5 40  1  0  0  0  0
  6 41  1  0  0  0  0
  7 42  1  0  0  0  0
  9 43  1  0  0  0  0
 13 44  1  0  0  0  0
 15 45  1  0  0  0  0
 20 46  1  0  0  0  0
 22 47  1  0  0  0  0
 23 48  1  0  0  0  0
 24 49  1  0  0  0  0
 25 50  1  0  0  0  0
 27 51  1  0  0  0  0
 28 52  1  0  0  0  0
 30 53  1  0  0  0  0
 31 54  1  0  0  0  0
 32 55  1  0  0  0  0
 32 56  1  0  0  0  0
 33 57  1  0  0  0  0
 33 58  1  0  0  0  0
 34 59  1  0  0  0  0
 34 60  1  0  0  0  0
 35 61  1  0  0  0  0
 35 62  1  0  0  0  0
M  END
