78

C     -4.272677   -4.668986   -0.551314
C     -3.624314   -5.445419    0.411031
C     -2.527765   -4.922585    1.073689
C     -2.078310   -3.630938    0.772689
C     -2.720033   -2.805621   -0.186026
C     -3.837974   -3.368017   -0.858311
C     -4.517607   -2.632481   -1.831042
C     -4.118593   -1.340777   -2.152325
C     -3.036511   -0.768788   -1.497989
C     -2.319863   -1.472664   -0.511001
C     -1.111190   -0.813790    0.147264
C      0.174427   -0.951760   -0.715087
C      1.015157   -2.161328   -0.301629
C      1.817183   -2.066175    0.857913
C      2.640546   -3.113463    1.250044
C      2.679532   -4.281604    0.498145
C      1.864457   -4.436117   -0.628557
C      1.007859   -3.380651   -1.042632
C      0.189793   -3.626070   -2.168669
C      0.229212   -4.834213   -2.869084
C      1.093153   -5.840907   -2.461130
C      1.905290   -5.640257   -1.348710
N      0.882076    0.315654   -0.490884
C      2.075491    0.576189   -1.164859
C      3.006402    1.560731   -0.622794
C      3.007202    2.468128    0.427608
C      4.281086    3.113656    0.448618
C      4.744657    4.164613    1.389539
C      4.998752    2.540393   -0.584088
C      6.370990    2.733984   -1.103823
O      4.239498    1.619822   -1.229567
O      2.341929   -0.082090   -2.170340
C     -0.048855    1.349763   -0.073002
C     -0.435031    2.266915   -1.273215
O      0.454095    3.269601   -1.472843
O     -1.377497    2.140947   -2.036058
N     -1.233079    0.634378    0.395525
C     -2.149020    1.105803    1.329771
C     -2.204613    2.522524    1.664145
C     -3.038799    3.187560    2.548484
C     -2.693311    4.566354    2.516243
C     -3.325998    5.662677    3.292244
C     -1.647598    4.656587    1.619017
C     -0.825173    5.774792    1.119778
O     -1.357358    3.432591    1.102688
O     -2.904933    0.313475    1.894379
H     -5.138064   -5.088770   -1.066623
H     -3.988937   -6.438304    0.658575
H     -2.014145   -5.508093    1.831876
H     -1.209448   -3.282960    1.327231
H     -5.371036   -3.061464   -2.352278
H     -4.663786   -0.771898   -2.901262
H     -2.766896    0.249213   -1.760311
H     -0.963680   -1.240675    1.144886
H     -0.051810   -0.968595   -1.785034
H      1.816116   -1.167511    1.470476
H      3.260352   -3.013739    2.135951
H      3.346457   -5.080811    0.808154
H     -0.510404   -2.877146   -2.521908
H     -0.423137   -4.988071   -3.724463
H      1.142475   -6.773386   -3.016821
H      2.577204   -6.442792   -1.046372
H      2.207868    2.679798    1.122174
H      3.907812    4.567207    1.964944
H      5.475696    3.751658    2.092327
H      5.213855    4.990403    0.849658
H      6.522845    3.767994   -1.432472
H      6.560744    2.075605   -1.956343
H      7.106949    2.507765   -0.328041
H      0.368220    1.919145    0.753094
H      0.120010    3.723541   -2.273539
H     -3.817848    2.720190    3.140425
H     -2.773530    5.849837    4.220461
H     -4.359255    5.407576    3.563416
H     -3.358645    6.589681    2.710736
H     -1.142214    6.057635    0.111966
H     -0.919755    6.654809    1.763954
H      0.233303    5.499729    1.081330
