
  xtb     03172201453D
 xtb: 6.3.3 (4ae9cef)
 78 84  0     0  0            999 V2000
   -3.9021   -4.7187   -0.7131 C   0  0  0  0  0  0  0  0  0  0  0  0
   -3.2001   -5.5392    0.1214 C   0  0  0  0  0  0  0  0  0  0  0  0
   -2.1376   -5.0190    0.8725 C   0  0  0  0  0  0  0  0  0  0  0  0
   -1.7874   -3.7024    0.7668 C   0  0  0  0  0  0  0  0  0  0  0  0
   -2.4704   -2.8275   -0.1070 C   0  0  0  0  0  0  0  0  0  0  0  0
   -3.5620   -3.3565   -0.8506 C   0  0  0  0  0  0  0  0  0  0  0  0
   -4.2801   -2.5220   -1.7308 C   0  0  0  0  0  0  0  0  0  0  0  0
   -3.9208   -1.2158   -1.8958 C   0  0  0  0  0  0  0  0  0  0  0  0
   -2.8231   -0.6967   -1.1986 C   0  0  0  0  0  0  0  0  0  0  0  0
   -2.1131   -1.4666   -0.3121 C   0  0  0  0  0  0  0  0  0  0  0  0
   -0.8872   -0.8877    0.3462 C   0  0  0  0  0  0  0  0  0  0  0  0
    0.3486   -1.0222   -0.5685 C   0  0  0  0  0  0  0  0  0  0  0  0
    1.0770   -2.3110   -0.2968 C   0  0  0  0  0  0  0  0  0  0  0  0
    1.9776   -2.3629    0.7376 C   0  0  0  0  0  0  0  0  0  0  0  0
    2.6171   -3.5573    1.0893 C   0  0  0  0  0  0  0  0  0  0  0  0
    2.3191   -4.7114    0.4245 C   0  0  0  0  0  0  0  0  0  0  0  0
    1.3806   -4.7107   -0.6272 C   0  0  0  0  0  0  0  0  0  0  0  0
    0.7564   -3.4932   -1.0172 C   0  0  0  0  0  0  0  0  0  0  0  0
   -0.1725   -3.5409   -2.0804 C   0  0  0  0  0  0  0  0  0  0  0  0
   -0.4887   -4.7202   -2.6937 C   0  0  0  0  0  0  0  0  0  0  0  0
    0.1134   -5.9200   -2.2912 C   0  0  0  0  0  0  0  0  0  0  0  0
    1.0368   -5.9096   -1.2863 C   0  0  0  0  0  0  0  0  0  0  0  0
    1.1313    0.1608   -0.2287 N   0  0  0  0  0  0  0  0  0  0  0  0
    2.3511    0.3489   -0.8341 C   0  0  0  0  0  0  0  0  0  0  0  0
    3.1056    1.5309   -0.3777 C   0  0  0  0  0  0  0  0  0  0  0  0
    3.2493    2.1222    0.8524 C   0  0  0  0  0  0  0  0  0  0  0  0
    4.2059    3.1514    0.6992 C   0  0  0  0  0  0  0  0  0  0  0  0
    4.7112    4.0738    1.7540 C   0  0  0  0  0  0  0  0  0  0  0  0
    4.5822    3.1123   -0.6208 C   0  0  0  0  0  0  0  0  0  0  0  0
    5.5426    3.9494   -1.3871 C   0  0  0  0  0  0  0  0  0  0  0  0
    3.9281    2.1315   -1.2640 O   0  0  0  0  0  0  0  0  0  0  0  0
    2.7981   -0.4466   -1.6327 O   0  0  0  0  0  0  0  0  0  0  0  0
    0.2347    1.2263    0.1750 C   0  0  0  0  0  0  0  0  0  0  0  0
   -0.0384    2.1393   -1.0398 C   0  0  0  0  0  0  0  0  0  0  0  0
    0.8731    3.1036   -1.1434 O   0  0  0  0  0  0  0  0  0  0  0  0
   -0.9257    1.9783   -1.8280 O   0  0  0  0  0  0  0  0  0  0  0  0
   -0.9597    0.5463    0.5944 N   0  0  0  0  0  0  0  0  0  0  0  0
   -1.9935    1.0571    1.3218 C   0  0  0  0  0  0  0  0  0  0  0  0
   -2.0445    2.5092    1.5062 C   0  0  0  0  0  0  0  0  0  0  0  0
   -3.0054    3.2268    2.1736 C   0  0  0  0  0  0  0  0  0  0  0  0
   -2.6546    4.5908    2.0600 C   0  0  0  0  0  0  0  0  0  0  0  0
   -3.3831    5.7600    2.6257 C   0  0  0  0  0  0  0  0  0  0  0  0
   -1.4954    4.6165    1.3261 C   0  0  0  0  0  0  0  0  0  0  0  0
   -0.6412    5.7486    0.8798 C   0  0  0  0  0  0  0  0  0  0  0  0
   -1.1225    3.3637    0.9884 O   0  0  0  0  0  0  0  0  0  0  0  0
   -2.8561    0.3349    1.7877 O   0  0  0  0  0  0  0  0  0  0  0  0
   -4.7317   -5.1014   -1.2911 H   0  0  0  0  0  0  0  0  0  0  0  0
   -3.4599   -6.5835    0.2141 H   0  0  0  0  0  0  0  0  0  0  0  0
   -1.5912   -5.6685    1.5407 H   0  0  0  0  0  0  0  0  0  0  0  0
   -0.9649   -3.3413    1.3634 H   0  0  0  0  0  0  0  0  0  0  0  0
   -5.1137   -2.9399   -2.2774 H   0  0  0  0  0  0  0  0  0  0  0  0
   -4.4656   -0.5747   -2.5728 H   0  0  0  0  0  0  0  0  0  0  0  0
   -2.5326    0.3280   -1.3733 H   0  0  0  0  0  0  0  0  0  0  0  0
   -0.7028   -1.3823    1.3071 H   0  0  0  0  0  0  0  0  0  0  0  0
    0.0449   -0.9576   -1.6202 H   0  0  0  0  0  0  0  0  0  0  0  0
    2.2046   -1.4644    1.2933 H   0  0  0  0  0  0  0  0  0  0  0  0
    3.3334   -3.5554    1.8977 H   0  0  0  0  0  0  0  0  0  0  0  0
    2.7910   -5.6442    0.6986 H   0  0  0  0  0  0  0  0  0  0  0  0
   -0.6562   -2.6388   -2.4188 H   0  0  0  0  0  0  0  0  0  0  0  0
   -1.2111   -4.7315   -3.4964 H   0  0  0  0  0  0  0  0  0  0  0  0
   -0.1524   -6.8433   -2.7845 H   0  0  0  0  0  0  0  0  0  0  0  0
    1.5189   -6.8247   -0.9723 H   0  0  0  0  0  0  0  0  0  0  0  0
    2.7636    1.8440    1.7663 H   0  0  0  0  0  0  0  0  0  0  0  0
    4.0030    4.1317    2.5765 H   0  0  0  0  0  0  0  0  0  0  0  0
    5.6638    3.7183    2.1468 H   0  0  0  0  0  0  0  0  0  0  0  0
    4.8664    5.0710    1.3473 H   0  0  0  0  0  0  0  0  0  0  0  0
    5.2705    5.0024   -1.3247 H   0  0  0  0  0  0  0  0  0  0  0  0
    5.5379    3.6385   -2.4278 H   0  0  0  0  0  0  0  0  0  0  0  0
    6.5498    3.8366   -0.9882 H   0  0  0  0  0  0  0  0  0  0  0  0
    0.6722    1.8351    0.9744 H   0  0  0  0  0  0  0  0  0  0  0  0
    0.7214    3.6321   -1.9453 H   0  0  0  0  0  0  0  0  0  0  0  0
   -3.8531    2.8092    2.6761 H   0  0  0  0  0  0  0  0  0  0  0  0
   -2.7983    6.2283    3.4172 H   0  0  0  0  0  0  0  0  0  0  0  0
   -4.3347    5.4408    3.0405 H   0  0  0  0  0  0  0  0  0  0  0  0
   -3.5657    6.5076    1.8556 H   0  0  0  0  0  0  0  0  0  0  0  0
   -1.1270    6.3034    0.0768 H   0  0  0  0  0  0  0  0  0  0  0  0
   -0.4647    6.4356    1.7050 H   0  0  0  0  0  0  0  0  0  0  0  0
    0.3094    5.3644    0.5186 H   0  0  0  0  0  0  0  0  0  0  0  0
  1  2  2  0  0  0  0
  2  3  4  0  0  0  0
  3  4  2  0  0  0  0
  4  5  4  0  0  0  0
  1  6  4  0  0  0  0
  5  6  4  0  0  0  0
  6  7  4  0  0  0  0
  7  8  2  0  0  0  0
  8  9  4  0  0  0  0
  5 10  4  0  0  0  0
  9 10  2  0  0  0  0
 10 11  1  0  0  0  0
 11 12  1  0  0  0  0
 12 13  1  0  0  0  0
 13 14  2  0  0  0  0
 14 15  4  0  0  0  0
 15 16  2  0  0  0  0
 16 17  4  0  0  0  0
 13 18  4  0  0  0  0
 17 18  4  0  0  0  0
 18 19  4  0  0  0  0
 19 20  2  0  0  0  0
 20 21  4  0  0  0  0
 17 22  4  0  0  0  0
 21 22  2  0  0  0  0
 12 23  1  0  0  0  0
 23 24  1  0  0  0  0
 24 25  1  0  0  0  0
 25 26  2  0  0  0  0
 26 27  4  0  0  0  0
 27 28  1  0  0  0  0
 27 29  2  0  0  0  0
 29 30  1  0  0  0  0
 25 31  1  0  0  0  0
 29 31  1  0  0  0  0
 24 32  2  0  0  0  0
 23 33  1  0  0  0  0
 33 34  1  0  0  0  0
 34 35  1  0  0  0  0
 34 36  2  0  0  0  0
 11 37  1  0  0  0  0
 33 37  1  0  0  0  0
 37 38  1  0  0  0  0
 38 39  1  0  0  0  0
 39 40  2  0  0  0  0
 40 41  4  0  0  0  0
 41 42  1  0  0  0  0
 41 43  2  0  0  0  0
 43 44  1  0  0  0  0
 39 45  1  0  0  0  0
 43 45  1  0  0  0  0
 38 46  2  0  0  0  0
  1 47  1  0  0  0  0
  2 48  1  0  0  0  0
  3 49  1  0  0  0  0
  4 50  1  0  0  0  0
  7 51  1  0  0  0  0
  8 52  1  0  0  0  0
  9 53  1  0  0  0  0
 11 54  1  0  0  0  0
 12 55  1  0  0  0  0
 14 56  1  0  0  0  0
 15 57  1  0  0  0  0
 16 58  1  0  0  0  0
 19 59  1  0  0  0  0
 20 60  1  0  0  0  0
 21 61  1  0  0  0  0
 22 62  1  0  0  0  0
 26 63  1  0  0  0  0
 28 64  1  0  0  0  0
 28 65  1  0  0  0  0
 28 66  1  0  0  0  0
 30 67  1  0  0  0  0
 30 68  1  0  0  0  0
 30 69  1  0  0  0  0
 33 70  1  0  0  0  0
 35 71  1  0  0  0  0
 40 72  1  0  0  0  0
 42 73  1  0  0  0  0
 42 74  1  0  0  0  0
 42 75  1  0  0  0  0
 44 76  1  0  0  0  0
 44 77  1  0  0  0  0
 44 78  1  0  0  0  0
M  END
