66

C     -3.104758   -0.871489   -0.874739
C     -3.397870   -2.078797    0.002694
F     -4.732809   -2.328105    0.153125
F     -2.866563   -3.221789   -0.521152
F     -2.903833   -1.983149    1.269492
C     -4.133789   -0.444188   -1.747585
C     -3.956595    0.624220   -2.623535
C     -2.737776    1.276226   -2.657988
C     -1.704184    0.856663   -1.829161
C     -1.856157   -0.196036   -0.900075
C     -0.667183   -0.562589   -0.001310
C      0.615522   -0.902014   -0.840971
C      1.027795   -2.377033   -0.664444
C      2.115072   -2.910386    0.072471
C      3.171504   -2.099041    0.798450
F      3.926010   -1.326389   -0.036126
F      4.092073   -2.864647    1.473796
F      2.654047   -1.267421    1.753640
C      2.272690   -4.319658    0.140417
C      1.399413   -5.193388   -0.503249
C      0.339708   -4.682714   -1.236058
C      0.162296   -3.300302   -1.315818
N      1.579321    0.143772   -0.517463
C      2.589154    0.459031   -1.420987
C      3.507859    1.589730   -1.148609
C      3.653452    2.563069   -2.145200
C      4.481825    3.668887   -1.933914
C      5.181148    3.782090   -0.732658
Cl     6.194760    5.143606   -0.458624
C      5.053002    2.806592    0.255948
C      4.218035    1.704210    0.049180
O      2.701289   -0.115917   -2.505357
C      1.121622    0.979179    0.598757
C      0.975706    2.498005    0.258830
O      1.608441    3.317450    1.114094
O      0.356127    2.983329   -0.677777
N     -0.240927    0.528078    0.891175
C     -0.751978    0.819913    2.145719
C     -2.215081    0.762659    2.370404
C     -3.091058    1.486199    1.554615
C     -4.465246    1.440028    1.803234
C     -4.943820    0.725055    2.900417
Cl    -6.632106    0.690257    3.220311
C     -4.065612    0.059660    3.761061
C     -2.693678    0.076333    3.494126
O     -0.037416    1.208008    3.065845
H     -5.096977   -0.956538   -1.754182
H     -4.763448    0.945594   -3.274170
H     -2.571896    2.114085   -3.326163
H     -0.755723    1.380742   -1.922548
H     -0.929807   -1.407276    0.637352
H      0.413282   -0.796189   -1.915286
H      3.106786   -4.754242    0.701162
H      1.556256   -6.270443   -0.436019
H     -0.353392   -5.354623   -1.747586
H     -0.675764   -2.937252   -1.911498
H      3.110564    2.467928   -3.080906
H      4.577557    4.425411   -2.705684
H      5.604034    2.890135    1.190697
H      4.133906    0.951559    0.825896
H      1.789763    0.869658    1.458119
H      1.378803    4.214068    0.796358
H     -2.713452    2.063372    0.711533
H     -5.161914    1.962873    1.143664
H     -4.439539   -0.496253    4.623697
H     -2.008469   -0.459809    4.130560
