54

O      2.606579   -0.438736    2.178319
C      1.965649   -1.092897    1.361906
C      2.253903   -2.503289    1.181656
C      3.502599   -2.984942    0.841128
O      3.489457   -4.338172    0.742033
C      2.237855   -4.744203    1.070046
C      1.445047   -3.660372    1.368977
N      0.999871   -0.521700    0.554431
C      0.034267   -1.224628   -0.279525
C      0.714118   -1.629850   -1.615118
O      0.655267   -2.959098   -1.846042
O      1.248128   -0.891435   -2.427646
N     -1.034580   -0.266262   -0.519704
C     -2.083011   -0.492515   -1.397387
C     -2.574772   -1.853661   -1.529199
C     -2.791943   -2.766598   -0.516919
O     -3.285173   -3.930914   -1.010413
C     -3.433265   -3.760202   -2.348533
C     -3.031895   -2.498197   -2.715577
O     -2.584643    0.408941   -2.061961
C     -0.590709    1.092430   -0.213857
C     -1.654190    1.913190    0.498845
C     -1.935702    3.214819    0.057193
C     -2.889696    3.996520    0.710266
C     -3.573328    3.488572    1.812590
C     -3.305825    2.197993    2.263060
C     -2.352501    1.413859    1.611543
C      0.661654    0.898754    0.682537
C      1.762234    1.879931    0.312133
C      1.825530    3.112324    0.986523
C      2.792915    4.062841    0.655737
C      3.710059    3.799073   -0.357175
C      3.659333    2.585664   -1.038055
C      2.691902    1.633436   -0.707520
H      4.452886   -2.507580    0.640280
H      2.075053   -5.813098    1.059046
H      0.415872   -3.711140    1.693530
H     -0.358928   -2.096849    0.239102
H      1.123846   -3.085634   -2.699145
H     -2.666031   -2.740705    0.556691
H     -3.838358   -4.605434   -2.887444
H     -3.061441   -2.080505   -3.713269
H     -0.332344    1.559733   -1.173941
H     -1.417386    3.628018   -0.806427
H     -3.102847    5.000962    0.353511
H     -4.318437    4.097269    2.317581
H     -3.843151    1.802074    3.121044
H     -2.160428    0.409312    1.980323
H      0.425400    1.039438    1.746658
H      1.118125    3.341871    1.781891
H      2.830861    5.007850    1.190877
H      4.465070    4.537008   -0.614640
H      4.374334    2.377132   -1.829523
H      2.682772    0.699601   -1.260438
