
  xtb     03162223163D
 xtb: 6.3.3 (4ae9cef)
 54 58  0     0  0            999 V2000
    2.8739   -0.2541    1.8484 O   0  0  0  0  0  0  0  0  0  0  0  0
    2.0974   -0.9329    1.2158 C   0  0  0  0  0  0  0  0  0  0  0  0
    2.3178   -2.3755    0.9262 C   0  0  0  0  0  0  0  0  0  0  0  0
    3.2452   -2.9015    0.0739 C   0  0  0  0  0  0  0  0  0  0  0  0
    3.1862   -4.2402    0.0765 O   0  0  0  0  0  0  0  0  0  0  0  0
    2.2305   -4.5944    0.9495 C   0  0  0  0  0  0  0  0  0  0  0  0
    1.6558   -3.4953    1.5055 C   0  0  0  0  0  0  0  0  0  0  0  0
    0.9384   -0.4413    0.7043 N   0  0  0  0  0  0  0  0  0  0  0  0
   -0.0374   -1.2125   -0.0234 C   0  0  0  0  0  0  0  0  0  0  0  0
    0.5866   -1.8219   -1.2973 C   0  0  0  0  0  0  0  0  0  0  0  0
    0.3196   -3.1215   -1.4058 O   0  0  0  0  0  0  0  0  0  0  0  0
    1.2113   -1.1983   -2.1072 O   0  0  0  0  0  0  0  0  0  0  0  0
   -1.0544   -0.2507   -0.3766 N   0  0  0  0  0  0  0  0  0  0  0  0
   -2.1075   -0.4792   -1.2157 C   0  0  0  0  0  0  0  0  0  0  0  0
   -2.4504   -1.9047   -1.4310 C   0  0  0  0  0  0  0  0  0  0  0  0
   -2.7536   -2.8682   -0.5097 C   0  0  0  0  0  0  0  0  0  0  0  0
   -3.0841   -4.0148   -1.1150 O   0  0  0  0  0  0  0  0  0  0  0  0
   -2.9965   -3.8070   -2.4381 C   0  0  0  0  0  0  0  0  0  0  0  0
   -2.6236   -2.5269   -2.6996 C   0  0  0  0  0  0  0  0  0  0  0  0
   -2.7308    0.4280   -1.7202 O   0  0  0  0  0  0  0  0  0  0  0  0
   -0.6129    1.1193   -0.1434 C   0  0  0  0  0  0  0  0  0  0  0  0
   -1.7027    1.9672    0.4558 C   0  0  0  0  0  0  0  0  0  0  0  0
   -1.8457    3.2914    0.0690 C   0  0  0  0  0  0  0  0  0  0  0  0
   -2.8216    4.0843    0.6460 C   0  0  0  0  0  0  0  0  0  0  0  0
   -3.6630    3.5594    1.6116 C   0  0  0  0  0  0  0  0  0  0  0  0
   -3.5213    2.2393    2.0041 C   0  0  0  0  0  0  0  0  0  0  0  0
   -2.5411    1.4482    1.4337 C   0  0  0  0  0  0  0  0  0  0  0  0
    0.5838    0.9676    0.8148 C   0  0  0  0  0  0  0  0  0  0  0  0
    1.7137    1.8908    0.4423 C   0  0  0  0  0  0  0  0  0  0  0  0
    1.9789    3.0109    1.2158 C   0  0  0  0  0  0  0  0  0  0  0  0
    2.9915    3.8823    0.8557 C   0  0  0  0  0  0  0  0  0  0  0  0
    3.7470    3.6381   -0.2778 C   0  0  0  0  0  0  0  0  0  0  0  0
    3.4820    2.5229   -1.0546 C   0  0  0  0  0  0  0  0  0  0  0  0
    2.4655    1.6544   -0.7017 C   0  0  0  0  0  0  0  0  0  0  0  0
    3.9612   -2.4292   -0.5684 H   0  0  0  0  0  0  0  0  0  0  0  0
    2.0527   -5.6418    1.0894 H   0  0  0  0  0  0  0  0  0  0  0  0
    0.8825   -3.4738    2.2454 H   0  0  0  0  0  0  0  0  0  0  0  0
   -0.4488   -2.0338    0.5818 H   0  0  0  0  0  0  0  0  0  0  0  0
    0.6981   -3.4897   -2.2219 H   0  0  0  0  0  0  0  0  0  0  0  0
   -2.8035   -2.8445    0.5609 H   0  0  0  0  0  0  0  0  0  0  0  0
   -3.2265   -4.6316   -3.0828 H   0  0  0  0  0  0  0  0  0  0  0  0
   -2.4801   -2.0635   -3.6534 H   0  0  0  0  0  0  0  0  0  0  0  0
   -0.2847    1.5628   -1.0931 H   0  0  0  0  0  0  0  0  0  0  0  0
   -1.1925    3.6990   -0.6884 H   0  0  0  0  0  0  0  0  0  0  0  0
   -2.9290    5.1133    0.3366 H   0  0  0  0  0  0  0  0  0  0  0  0
   -4.4299    4.1762    2.0561 H   0  0  0  0  0  0  0  0  0  0  0  0
   -4.1761    1.8249    2.7566 H   0  0  0  0  0  0  0  0  0  0  0  0
   -2.4323    0.4171    1.7397 H   0  0  0  0  0  0  0  0  0  0  0  0
    0.2712    1.1728    1.8481 H   0  0  0  0  0  0  0  0  0  0  0  0
    1.3930    3.1987    2.1038 H   0  0  0  0  0  0  0  0  0  0  0  0
    3.1942    4.7507    1.4650 H   0  0  0  0  0  0  0  0  0  0  0  0
    4.5423    4.3143   -0.5548 H   0  0  0  0  0  0  0  0  0  0  0  0
    4.0687    2.3281   -1.9403 H   0  0  0  0  0  0  0  0  0  0  0  0
    2.2612    0.7866   -1.3119 H   0  0  0  0  0  0  0  0  0  0  0  0
  1  2  2  0  0  0  0
  2  3  1  0  0  0  0
  3  4  2  0  0  0  0
  4  5  1  0  0  0  0
  5  6  1  0  0  0  0
  3  7  4  0  0  0  0
  6  7  2  0  0  0  0
  2  8  4  0  0  0  0
  8  9  1  0  0  0  0
  9 10  1  0  0  0  0
 10 11  1  0  0  0  0
 10 12  2  0  0  0  0
  9 13  1  0  0  0  0
 13 14  1  0  0  0  0
 14 15  1  0  0  0  0
 15 16  2  0  0  0  0
 16 17  1  0  0  0  0
 17 18  1  0  0  0  0
 15 19  4  0  0  0  0
 18 19  2  0  0  0  0
 14 20  2  0  0  0  0
 13 21  1  0  0  0  0
 21 22  1  0  0  0  0
 22 23  4  0  0  0  0
 23 24  4  0  0  0  0
 24 25  4  0  0  0  0
 25 26  4  0  0  0  0
 22 27  4  0  0  0  0
 26 27  4  0  0  0  0
  8 28  1  0  0  0  0
 21 28  1  0  0  0  0
 28 29  1  0  0  0  0
 29 30  4  0  0  0  0
 30 31  4  0  0  0  0
 31 32  4  0  0  0  0
 32 33  4  0  0  0  0
 29 34  4  0  0  0  0
 33 34  4  0  0  0  0
  4 35  1  0  0  0  0
  6 36  1  0  0  0  0
  7 37  1  0  0  0  0
  9 38  1  0  0  0  0
 11 39  1  0  0  0  0
 16 40  1  0  0  0  0
 18 41  1  0  0  0  0
 19 42  1  0  0  0  0
 21 43  1  0  0  0  0
 23 44  1  0  0  0  0
 24 45  1  0  0  0  0
 25 46  1  0  0  0  0
 26 47  1  0  0  0  0
 27 48  1  0  0  0  0
 28 49  1  0  0  0  0
 30 50  1  0  0  0  0
 31 51  1  0  0  0  0
 32 52  1  0  0  0  0
 33 53  1  0  0  0  0
 34 54  1  0  0  0  0
M  END
