
  xtb     03162222563D
 xtb: 6.3.3 (4ae9cef)
 92 96  0     0  0            999 V2000
   -1.4474   -3.7085    1.9353 C   0  0  0  0  0  0  0  0  0  0  0  0
   -1.0394   -2.7764    2.8469 O   0  0  0  0  0  0  0  0  0  0  0  0
   -1.6806   -2.7439    4.0985 C   0  0  0  0  0  0  0  0  0  0  0  0
   -2.3061   -4.7593    2.2161 C   0  0  0  0  0  0  0  0  0  0  0  0
   -2.6450   -5.6616    1.2204 C   0  0  0  0  0  0  0  0  0  0  0  0
   -2.1324   -5.5220   -0.0526 C   0  0  0  0  0  0  0  0  0  0  0  0
   -1.2809   -4.4665   -0.3423 C   0  0  0  0  0  0  0  0  0  0  0  0
   -0.9354   -3.5540    0.6351 C   0  0  0  0  0  0  0  0  0  0  0  0
   -0.0014   -2.4013    0.4105 C   0  0  0  0  0  0  0  0  0  0  0  0
    0.7402   -2.2947   -0.9266 C   0  0  0  0  0  0  0  0  0  0  0  0
    1.9388   -3.1945   -1.0379 C   0  0  0  0  0  0  0  0  0  0  0  0
    3.0246   -3.0149   -0.1976 C   0  0  0  0  0  0  0  0  0  0  0  0
    4.1502   -3.8128   -0.2993 C   0  0  0  0  0  0  0  0  0  0  0  0
    4.1922   -4.8025   -1.2619 C   0  0  0  0  0  0  0  0  0  0  0  0
    3.1211   -4.9951   -2.1168 C   0  0  0  0  0  0  0  0  0  0  0  0
    1.9874   -4.1972   -2.0165 C   0  0  0  0  0  0  0  0  0  0  0  0
    0.8905   -4.3281   -2.8123 O   0  0  0  0  0  0  0  0  0  0  0  0
    0.9559   -5.1982   -3.9160 C   0  0  0  0  0  0  0  0  0  0  0  0
    1.1473   -0.8876   -0.9036 N   0  0  0  0  0  0  0  0  0  0  0  0
    1.8773   -0.3781   -1.9342 C   0  0  0  0  0  0  0  0  0  0  0  0
    2.2420    1.0615   -1.7995 C   0  0  0  0  0  0  0  0  0  0  0  0
    1.9622    1.9365   -2.8391 C   0  0  0  0  0  0  0  0  0  0  0  0
    2.3063    3.2691   -2.7085 C   0  0  0  0  0  0  0  0  0  0  0  0
    2.9302    3.7180   -1.5603 C   0  0  0  0  0  0  0  0  0  0  0  0
    3.2505    2.8490   -0.5192 C   0  0  0  0  0  0  0  0  0  0  0  0
    3.9215    3.3919    0.7317 C   0  0  0  0  0  0  0  0  0  0  0  0
    4.1928    2.3047    1.7749 C   0  0  0  0  0  0  0  0  0  0  0  0
    5.2612    4.0384    0.3545 C   0  0  0  0  0  0  0  0  0  0  0  0
    2.9866    4.4358    1.3597 C   0  0  0  0  0  0  0  0  0  0  0  0
    2.9057    1.5141   -0.6648 C   0  0  0  0  0  0  0  0  0  0  0  0
    2.2298   -1.0645   -2.8709 O   0  0  0  0  0  0  0  0  0  0  0  0
    0.3773   -0.1280    0.0747 C   0  0  0  0  0  0  0  0  0  0  0  0
   -0.2247    1.1290   -0.5708 C   0  0  0  0  0  0  0  0  0  0  0  0
   -0.9286    0.8232   -1.6567 O   0  0  0  0  0  0  0  0  0  0  0  0
   -0.0486    2.2502   -0.1820 O   0  0  0  0  0  0  0  0  0  0  0  0
   -0.6165   -1.0766    0.5232 N   0  0  0  0  0  0  0  0  0  0  0  0
   -1.9424   -0.8197    0.7000 C   0  0  0  0  0  0  0  0  0  0  0  0
   -2.2429    0.5965    1.0663 C   0  0  0  0  0  0  0  0  0  0  0  0
   -3.2555    1.2692    0.3913 C   0  0  0  0  0  0  0  0  0  0  0  0
   -3.6042    2.5686    0.7288 C   0  0  0  0  0  0  0  0  0  0  0  0
   -4.6866    3.3457   -0.0039 C   0  0  0  0  0  0  0  0  0  0  0  0
   -5.7929    3.7176    0.9932 C   0  0  0  0  0  0  0  0  0  0  0  0
   -4.0714    4.6201   -0.5992 C   0  0  0  0  0  0  0  0  0  0  0  0
   -5.3222    2.5408   -1.1409 C   0  0  0  0  0  0  0  0  0  0  0  0
   -2.9242    3.1642    1.7893 C   0  0  0  0  0  0  0  0  0  0  0  0
   -1.9463    2.4863    2.4932 C   0  0  0  0  0  0  0  0  0  0  0  0
   -1.5976    1.1972    2.1386 C   0  0  0  0  0  0  0  0  0  0  0  0
   -2.8138   -1.6597    0.6337 O   0  0  0  0  0  0  0  0  0  0  0  0
   -1.2790   -1.8725    4.6146 H   0  0  0  0  0  0  0  0  0  0  0  0
   -2.7626   -2.6300    3.9853 H   0  0  0  0  0  0  0  0  0  0  0  0
   -1.4644   -3.6412    4.6881 H   0  0  0  0  0  0  0  0  0  0  0  0
   -2.7215   -4.8844    3.2035 H   0  0  0  0  0  0  0  0  0  0  0  0
   -3.3175   -6.4746    1.4518 H   0  0  0  0  0  0  0  0  0  0  0  0
   -2.3985   -6.2252   -0.8270 H   0  0  0  0  0  0  0  0  0  0  0  0
   -0.8879   -4.3613   -1.3395 H   0  0  0  0  0  0  0  0  0  0  0  0
    0.7538   -2.4439    1.2133 H   0  0  0  0  0  0  0  0  0  0  0  0
    0.0689   -2.4625   -1.7748 H   0  0  0  0  0  0  0  0  0  0  0  0
    2.9944   -2.2244    0.5388 H   0  0  0  0  0  0  0  0  0  0  0  0
    4.9890   -3.6566    0.3617 H   0  0  0  0  0  0  0  0  0  0  0  0
    5.0657   -5.4301   -1.3588 H   0  0  0  0  0  0  0  0  0  0  0  0
    3.1828   -5.7686   -2.8657 H   0  0  0  0  0  0  0  0  0  0  0  0
    1.0486   -6.2430   -3.6007 H   0  0  0  0  0  0  0  0  0  0  0  0
    1.7855   -4.9384   -4.5796 H   0  0  0  0  0  0  0  0  0  0  0  0
    0.0146   -5.0676   -4.4483 H   0  0  0  0  0  0  0  0  0  0  0  0
    1.4719    1.5678   -3.7278 H   0  0  0  0  0  0  0  0  0  0  0  0
    2.0824    3.9644   -3.5046 H   0  0  0  0  0  0  0  0  0  0  0  0
    3.1728    4.7666   -1.4811 H   0  0  0  0  0  0  0  0  0  0  0  0
    3.2639    1.8509    2.1127 H   0  0  0  0  0  0  0  0  0  0  0  0
    4.6833    2.7476    2.6395 H   0  0  0  0  0  0  0  0  0  0  0  0
    4.8483    1.5329    1.3776 H   0  0  0  0  0  0  0  0  0  0  0  0
    5.9201    3.3006   -0.0987 H   0  0  0  0  0  0  0  0  0  0  0  0
    5.1249    4.8520   -0.3522 H   0  0  0  0  0  0  0  0  0  0  0  0
    5.7473    4.4369    1.2425 H   0  0  0  0  0  0  0  0  0  0  0  0
    2.0032    4.0010    1.5260 H   0  0  0  0  0  0  0  0  0  0  0  0
    2.8688    5.3001    0.7126 H   0  0  0  0  0  0  0  0  0  0  0  0
    3.3881    4.7755    2.3122 H   0  0  0  0  0  0  0  0  0  0  0  0
    3.1538    0.7941    0.0977 H   0  0  0  0  0  0  0  0  0  0  0  0
    1.0189    0.2016    0.9116 H   0  0  0  0  0  0  0  0  0  0  0  0
   -1.2833    1.6249   -2.0730 H   0  0  0  0  0  0  0  0  0  0  0  0
   -3.7478    0.7417   -0.4098 H   0  0  0  0  0  0  0  0  0  0  0  0
   -6.2205    2.8181    1.4307 H   0  0  0  0  0  0  0  0  0  0  0  0
   -5.4097    4.3392    1.7976 H   0  0  0  0  0  0  0  0  0  0  0  0
   -6.5846    4.2655    0.4866 H   0  0  0  0  0  0  0  0  0  0  0  0
   -3.6804    5.2715    0.1769 H   0  0  0  0  0  0  0  0  0  0  0  0
   -4.8230    5.1714   -1.1601 H   0  0  0  0  0  0  0  0  0  0  0  0
   -3.2539    4.3680   -1.2717 H   0  0  0  0  0  0  0  0  0  0  0  0
   -5.7888    1.6339   -0.7644 H   0  0  0  0  0  0  0  0  0  0  0  0
   -6.0928    3.1401   -1.6217 H   0  0  0  0  0  0  0  0  0  0  0  0
   -4.5860    2.2739   -1.8958 H   0  0  0  0  0  0  0  0  0  0  0  0
   -3.1625    4.1752    2.0828 H   0  0  0  0  0  0  0  0  0  0  0  0
   -1.4503    2.9706    3.3213 H   0  0  0  0  0  0  0  0  0  0  0  0
   -0.8407    0.6565    2.6870 H   0  0  0  0  0  0  0  0  0  0  0  0
  1  2  1  0  0  0  0
  2  3  1  0  0  0  0
  1  4  4  0  0  0  0
  4  5  4  0  0  0  0
  5  6  4  0  0  0  0
  6  7  4  0  0  0  0
  1  8  4  0  0  0  0
  7  8  4  0  0  0  0
  8  9  1  0  0  0  0
  9 10  1  0  0  0  0
 10 11  1  0  0  0  0
 11 12  4  0  0  0  0
 12 13  4  0  0  0  0
 13 14  4  0  0  0  0
 14 15  4  0  0  0  0
 11 16  4  0  0  0  0
 15 16  4  0  0  0  0
 16 17  1  0  0  0  0
 17 18  1  0  0  0  0
 10 19  1  0  0  0  0
 19 20  4  0  0  0  0
 20 21  1  0  0  0  0
 21 22  4  0  0  0  0
 22 23  4  0  0  0  0
 23 24  4  0  0  0  0
 24 25  4  0  0  0  0
 25 26  1  0  0  0  0
 26 27  1  0  0  0  0
 26 28  1  0  0  0  0
 26 29  1  0  0  0  0
 21 30  4  0  0  0  0
 25 30  4  0  0  0  0
 20 31  2  0  0  0  0
 19 32  1  0  0  0  0
 32 33  1  0  0  0  0
 33 34  1  0  0  0  0
 33 35  2  0  0  0  0
  9 36  1  0  0  0  0
 32 36  1  0  0  0  0
 36 37  1  0  0  0  0
 37 38  1  0  0  0  0
 38 39  4  0  0  0  0
 39 40  4  0  0  0  0
 40 41  1  0  0  0  0
 41 42  1  0  0  0  0
 41 43  1  0  0  0  0
 41 44  1  0  0  0  0
 40 45  4  0  0  0  0
 45 46  4  0  0  0  0
 38 47  4  0  0  0  0
 46 47  4  0  0  0  0
 37 48  2  0  0  0  0
  3 49  1  0  0  0  0
  3 50  1  0  0  0  0
  3 51  1  0  0  0  0
  4 52  1  0  0  0  0
  5 53  1  0  0  0  0
  6 54  1  0  0  0  0
  7 55  1  0  0  0  0
  9 56  1  0  0  0  0
 10 57  1  0  0  0  0
 12 58  1  0  0  0  0
 13 59  1  0  0  0  0
 14 60  1  0  0  0  0
 15 61  1  0  0  0  0
 18 62  1  0  0  0  0
 18 63  1  0  0  0  0
 18 64  1  0  0  0  0
 22 65  1  0  0  0  0
 23 66  1  0  0  0  0
 24 67  1  0  0  0  0
 27 68  1  0  0  0  0
 27 69  1  0  0  0  0
 27 70  1  0  0  0  0
 28 71  1  0  0  0  0
 28 72  1  0  0  0  0
 28 73  1  0  0  0  0
 29 74  1  0  0  0  0
 29 75  1  0  0  0  0
 29 76  1  0  0  0  0
 30 77  1  0  0  0  0
 32 78  1  0  0  0  0
 34 79  1  0  0  0  0
 39 80  1  0  0  0  0
 42 81  1  0  0  0  0
 42 82  1  0  0  0  0
 42 83  1  0  0  0  0
 43 84  1  0  0  0  0
 43 85  1  0  0  0  0
 43 86  1  0  0  0  0
 44 87  1  0  0  0  0
 44 88  1  0  0  0  0
 44 89  1  0  0  0  0
 45 90  1  0  0  0  0
 46 91  1  0  0  0  0
 47 92  1  0  0  0  0
M  END
