74

C      1.533343   -2.016406    2.112474
O      1.592732   -3.179948    1.390072
C      2.926078   -3.694426    1.346510
C      1.812375   -2.028821    3.483562
C      1.705464   -0.856320    4.228331
C      1.302551    0.322406    3.606924
C      1.011209    0.330109    2.241136
C      1.121148   -0.839156    1.467672
C      0.788875   -0.838808   -0.017707
C     -0.709790   -0.565866   -0.295413
C     -1.368591   -1.767290   -0.968168
C     -1.130653   -2.057404   -2.326411
C     -1.738603   -3.150902   -2.940489
C     -2.581769   -3.975000   -2.205006
C     -2.817003   -3.711756   -0.854331
C     -2.217919   -2.613636   -0.229188
O     -2.379531   -2.297573    1.094005
C     -3.468008   -2.908682    1.776899
N     -0.724128    0.637476   -1.137922
C     -1.819488    1.224218   -1.739203
C     -3.132266    0.889294   -1.230770
C     -4.167714    0.411661   -2.009476
O     -5.274907    0.179154   -1.259455
C     -4.971602    0.545833    0.015750
C     -3.665229    1.016134    0.088571
C     -3.197161    1.485761    1.331766
C     -4.048862    1.427744    2.443841
C     -5.348065    0.927340    2.329253
C     -5.841740    0.477375    1.101178
O     -1.685298    2.009009   -2.674947
C      0.612670    1.093851   -1.470356
C      0.749223    2.567707   -1.005269
O      1.111882    3.399780   -2.003988
O      0.566580    3.002473    0.123424
N      1.519114    0.203885   -0.749671
C      2.836425   -0.022607   -1.112846
C      3.534259    1.053887   -1.775939
C      3.960209    1.028803   -3.087714
O      4.606559    2.180000   -3.406968
C      4.641175    2.942031   -2.278502
C      4.008889    2.283432   -1.229693
C      3.974389    2.909807    0.031827
C      4.559315    4.176207    0.171876
C      5.173148    4.809968   -0.912571
C      5.229646    4.200383   -2.170279
O      3.415526   -1.080350   -0.886063
H      3.008309   -4.339466    0.466675
H      3.678698   -2.901029    1.254779
H      3.123070   -4.305312    2.233050
H      2.100076   -2.951951    3.978839
H      1.923876   -0.866709    5.292864
H      1.204046    1.238330    4.185608
H      0.686485    1.264306    1.792927
H      1.088375   -1.795851   -0.461052
H     -1.239902   -0.304913    0.622811
H     -0.471034   -1.431516   -2.921512
H     -1.551242   -3.361766   -3.990686
H     -3.053325   -4.831901   -2.679311
H     -3.465458   -4.391073   -0.311984
H     -4.413644   -2.749975    1.245678
H     -3.278146   -3.973622    1.939066
H     -3.554127   -2.432873    2.759324
H     -4.259898    0.176729   -3.060961
H     -2.192169    1.884948    1.436230
H     -3.690234    1.780060    3.408595
H     -5.990915    0.897768    3.206664
H     -6.850688    0.101745    0.987600
H      0.774647    1.013306   -2.550632
H      1.166974    4.286010   -1.589649
H      3.880302    0.301625   -3.884767
H      3.499853    2.428750    0.884398
H      4.536011    4.670117    1.141348
H      5.624783    5.790665   -0.774371
H      5.710821    4.672825   -3.018260
