
  xtb     03162223533D
 xtb: 6.3.3 (4ae9cef)
 74 80  0     0  0            999 V2000
    1.4602   -2.1456    1.7968 C   0  0  0  0  0  0  0  0  0  0  0  0
    1.2576   -3.2391    1.0085 O   0  0  0  0  0  0  0  0  0  0  0  0
    1.5025   -4.5128    1.5503 C   0  0  0  0  0  0  0  0  0  0  0  0
    1.7932   -2.1978    3.1451 C   0  0  0  0  0  0  0  0  0  0  0  0
    1.9457   -1.0294    3.8724 C   0  0  0  0  0  0  0  0  0  0  0  0
    1.7572    0.2012    3.2735 C   0  0  0  0  0  0  0  0  0  0  0  0
    1.4287    0.2600    1.9302 C   0  0  0  0  0  0  0  0  0  0  0  0
    1.2960   -0.8974    1.1831 C   0  0  0  0  0  0  0  0  0  0  0  0
    0.9383   -0.8285   -0.2775 C   0  0  0  0  0  0  0  0  0  0  0  0
   -0.5466   -0.4679   -0.4734 C   0  0  0  0  0  0  0  0  0  0  0  0
   -1.3681   -1.6583   -0.8876 C   0  0  0  0  0  0  0  0  0  0  0  0
   -1.3442   -2.1276   -2.1892 C   0  0  0  0  0  0  0  0  0  0  0  0
   -2.1112   -3.2163   -2.5654 C   0  0  0  0  0  0  0  0  0  0  0  0
   -2.9055   -3.8434   -1.6243 C   0  0  0  0  0  0  0  0  0  0  0  0
   -2.9279   -3.4004   -0.3127 C   0  0  0  0  0  0  0  0  0  0  0  0
   -2.1553   -2.3111    0.0719 C   0  0  0  0  0  0  0  0  0  0  0  0
   -2.1005   -1.8091    1.3364 O   0  0  0  0  0  0  0  0  0  0  0  0
   -2.8831   -2.4107    2.3378 C   0  0  0  0  0  0  0  0  0  0  0  0
   -0.5270    0.5781   -1.4804 N   0  0  0  0  0  0  0  0  0  0  0  0
   -1.6017    1.2276   -1.9929 C   0  0  0  0  0  0  0  0  0  0  0  0
   -2.9088    0.6970   -1.5415 C   0  0  0  0  0  0  0  0  0  0  0  0
   -3.8524    0.0605   -2.2808 C   0  0  0  0  0  0  0  0  0  0  0  0
   -4.9194   -0.3178   -1.5452 O   0  0  0  0  0  0  0  0  0  0  0  0
   -4.6848    0.1062   -0.2804 C   0  0  0  0  0  0  0  0  0  0  0  0
   -3.4410    0.7629   -0.2087 C   0  0  0  0  0  0  0  0  0  0  0  0
   -3.0137    1.3169    0.9961 C   0  0  0  0  0  0  0  0  0  0  0  0
   -3.8261    1.1652    2.0984 C   0  0  0  0  0  0  0  0  0  0  0  0
   -5.0460    0.4905    2.0193 C   0  0  0  0  0  0  0  0  0  0  0  0
   -5.5012   -0.0434    0.8302 C   0  0  0  0  0  0  0  0  0  0  0  0
   -1.4711    2.1597   -2.7627 O   0  0  0  0  0  0  0  0  0  0  0  0
    0.7979    1.1075   -1.7130 C   0  0  0  0  0  0  0  0  0  0  0  0
    0.8291    2.5649   -1.2016 C   0  0  0  0  0  0  0  0  0  0  0  0
    1.2595    3.4047   -2.1265 O   0  0  0  0  0  0  0  0  0  0  0  0
    0.4868    2.8833   -0.0965 O   0  0  0  0  0  0  0  0  0  0  0  0
    1.6622    0.2290   -0.9715 N   0  0  0  0  0  0  0  0  0  0  0  0
    3.0192    0.2102   -1.0182 C   0  0  0  0  0  0  0  0  0  0  0  0
    3.6176    1.3780   -1.7158 C   0  0  0  0  0  0  0  0  0  0  0  0
    4.0160    1.4998   -3.0065 C   0  0  0  0  0  0  0  0  0  0  0  0
    4.5457    2.7141   -3.2743 O   0  0  0  0  0  0  0  0  0  0  0  0
    4.5028    3.4164   -2.1194 C   0  0  0  0  0  0  0  0  0  0  0  0
    3.9382    2.6321   -1.0938 C   0  0  0  0  0  0  0  0  0  0  0  0
    3.8016    3.1525    0.1908 C   0  0  0  0  0  0  0  0  0  0  0  0
    4.2208    4.4470    0.4076 C   0  0  0  0  0  0  0  0  0  0  0  0
    4.7709    5.2180   -0.6194 C   0  0  0  0  0  0  0  0  0  0  0  0
    4.9254    4.7183   -1.8970 C   0  0  0  0  0  0  0  0  0  0  0  0
    3.6739   -0.6642   -0.4947 O   0  0  0  0  0  0  0  0  0  0  0  0
    1.3257   -5.2158    0.7373 H   0  0  0  0  0  0  0  0  0  0  0  0
    2.5361   -4.6110    1.8953 H   0  0  0  0  0  0  0  0  0  0  0  0
    0.8188   -4.7380    2.3758 H   0  0  0  0  0  0  0  0  0  0  0  0
    1.9384   -3.1450    3.6404 H   0  0  0  0  0  0  0  0  0  0  0  0
    2.2098   -1.0899    4.9179 H   0  0  0  0  0  0  0  0  0  0  0  0
    1.8659    1.1100    3.8455 H   0  0  0  0  0  0  0  0  0  0  0  0
    1.2703    1.2159    1.4524 H   0  0  0  0  0  0  0  0  0  0  0  0
    1.1758   -1.7922   -0.7437 H   0  0  0  0  0  0  0  0  0  0  0  0
   -0.9454   -0.0786    0.4699 H   0  0  0  0  0  0  0  0  0  0  0  0
   -0.7281   -1.6205   -2.9170 H   0  0  0  0  0  0  0  0  0  0  0  0
   -2.0897   -3.5694   -3.5846 H   0  0  0  0  0  0  0  0  0  0  0  0
   -3.5153   -4.6888   -1.9059 H   0  0  0  0  0  0  0  0  0  0  0  0
   -3.5534   -3.9100    0.4027 H   0  0  0  0  0  0  0  0  0  0  0  0
   -3.9507   -2.3434    2.1070 H   0  0  0  0  0  0  0  0  0  0  0  0
   -2.6033   -3.4578    2.4906 H   0  0  0  0  0  0  0  0  0  0  0  0
   -2.6759   -1.8456    3.2449 H   0  0  0  0  0  0  0  0  0  0  0  0
   -3.8651   -0.2023   -3.3203 H   0  0  0  0  0  0  0  0  0  0  0  0
   -2.0829    1.8603    1.0558 H   0  0  0  0  0  0  0  0  0  0  0  0
   -3.5180    1.5788    3.0468 H   0  0  0  0  0  0  0  0  0  0  0  0
   -5.6514    0.3927    2.9081 H   0  0  0  0  0  0  0  0  0  0  0  0
   -6.4502   -0.5502    0.7566 H   0  0  0  0  0  0  0  0  0  0  0  0
    1.0338    1.1274   -2.7893 H   0  0  0  0  0  0  0  0  0  0  0  0
    1.2121    4.3255   -1.8211 H   0  0  0  0  0  0  0  0  0  0  0  0
    3.9764    0.8032   -3.8215 H   0  0  0  0  0  0  0  0  0  0  0  0
    3.3850    2.5524    0.9845 H   0  0  0  0  0  0  0  0  0  0  0  0
    4.1263    4.8791    1.3924 H   0  0  0  0  0  0  0  0  0  0  0  0
    5.0876    6.2276   -0.4057 H   0  0  0  0  0  0  0  0  0  0  0  0
    5.3563    5.3050   -2.6920 H   0  0  0  0  0  0  0  0  0  0  0  0
  1  2  1  0  0  0  0
  2  3  1  0  0  0  0
  1  4  4  0  0  0  0
  4  5  4  0  0  0  0
  5  6  4  0  0  0  0
  6  7  4  0  0  0  0
  1  8  4  0  0  0  0
  7  8  4  0  0  0  0
  8  9  1  0  0  0  0
  9 10  1  0  0  0  0
 10 11  1  0  0  0  0
 11 12  4  0  0  0  0
 12 13  4  0  0  0  0
 13 14  4  0  0  0  0
 14 15  4  0  0  0  0
 11 16  4  0  0  0  0
 15 16  4  0  0  0  0
 16 17  1  0  0  0  0
 17 18  1  0  0  0  0
 10 19  1  0  0  0  0
 19 20  4  0  0  0  0
 20 21  1  0  0  0  0
 21 22  2  0  0  0  0
 22 23  1  0  0  0  0
 23 24  1  0  0  0  0
 21 25  1  0  0  0  0
 24 25  4  0  0  0  0
 25 26  4  0  0  0  0
 26 27  4  0  0  0  0
 27 28  4  0  0  0  0
 24 29  4  0  0  0  0
 28 29  4  0  0  0  0
 20 30  2  0  0  0  0
 19 31  1  0  0  0  0
 31 32  1  0  0  0  0
 32 33  1  0  0  0  0
 32 34  2  0  0  0  0
  9 35  1  0  0  0  0
 31 35  1  0  0  0  0
 35 36  4  0  0  0  0
 36 37  1  0  0  0  0
 37 38  2  0  0  0  0
 38 39  1  0  0  0  0
 39 40  1  0  0  0  0
 37 41  1  0  0  0  0
 40 41  4  0  0  0  0
 41 42  4  0  0  0  0
 42 43  4  0  0  0  0
 43 44  4  0  0  0  0
 40 45  4  0  0  0  0
 44 45  4  0  0  0  0
 36 46  2  0  0  0  0
  3 47  1  0  0  0  0
  3 48  1  0  0  0  0
  3 49  1  0  0  0  0
  4 50  1  0  0  0  0
  5 51  1  0  0  0  0
  6 52  1  0  0  0  0
  7 53  1  0  0  0  0
  9 54  1  0  0  0  0
 10 55  1  0  0  0  0
 12 56  1  0  0  0  0
 13 57  1  0  0  0  0
 14 58  1  0  0  0  0
 15 59  1  0  0  0  0
 18 60  1  0  0  0  0
 18 61  1  0  0  0  0
 18 62  1  0  0  0  0
 22 63  1  0  0  0  0
 26 64  1  0  0  0  0
 27 65  1  0  0  0  0
 28 66  1  0  0  0  0
 29 67  1  0  0  0  0
 31 68  1  0  0  0  0
 33 69  1  0  0  0  0
 38 70  1  0  0  0  0
 42 71  1  0  0  0  0
 43 72  1  0  0  0  0
 44 73  1  0  0  0  0
 45 74  1  0  0  0  0
M  END
