66

C     -1.100692   -2.532224   -2.468163
C     -0.808459   -3.532854   -3.398952
C      0.163788   -4.489299   -3.118588
C      0.833484   -4.457556   -1.899030
C      0.542408   -3.457184   -0.968404
C     -0.411402   -2.457768   -1.245846
C     -0.695713   -1.389785   -0.188622
C      0.589418   -0.605527    0.234112
C      0.749161   -0.582400    1.747120
C      1.796018   -1.304449    2.344960
C      1.964070   -1.300347    3.730863
C      1.083288   -0.585128    4.538783
C      0.037898    0.132359    3.961197
C     -0.126787    0.137863    2.574884
N      0.415031    0.735276   -0.337428
C      1.260111    1.823415   -0.288784
C      2.562682    1.642007    0.337831
C      2.895745    2.309393    1.501389
S      4.439410    1.892147    2.079865
C      4.740788    0.854222    0.740017
C      3.657222    0.827882   -0.144016
C      3.786970    0.041362   -1.319779
C      4.943614   -0.704399   -1.559652
C      5.992036   -0.677566   -0.652469
C      5.908510    0.103442    0.502351
O      0.913292    2.921275   -0.720044
C     -0.849108    0.854668   -1.032718
C     -0.678141    0.851284   -2.584050
O      0.601085    0.765452   -3.018388
O     -1.580188    0.855615   -3.411187
N     -1.600559   -0.326271   -0.632220
C     -2.965299   -0.425370   -0.455116
C     -3.757691    0.759357   -0.747300
C     -4.279739    1.018367   -1.998100
S     -5.123355    2.496197   -2.059403
C     -4.869475    2.796207   -0.382371
C     -4.140211    1.765374    0.218620
C     -3.886054    1.859262    1.612586
C     -4.330396    2.963200    2.346529
C     -5.034022    3.981578    1.719755
C     -5.317172    3.911359    0.353277
O     -3.500732   -1.445597   -0.030547
H     -1.891385   -1.827727   -2.718860
H     -1.354562   -3.569471   -4.339655
H      0.383078   -5.271163   -3.840735
H      1.573304   -5.220356   -1.664953
H      1.063806   -3.477052   -0.013006
H     -1.153967   -1.912458    0.661043
H      1.489557   -1.034737   -0.215118
H      2.504639   -1.863596    1.734931
H      2.787276   -1.850959    4.179823
H      1.214071   -0.583525    5.618463
H     -0.649695    0.690060    4.592448
H     -0.941647    0.716471    2.148232
H      2.278666    3.002079    2.058214
H      2.977715    0.011341   -2.046362
H      5.021014   -1.304006   -2.464604
H      6.890050   -1.258908   -0.843690
H      6.737228    0.135626    1.205131
H     -1.345344    1.787506   -0.747612
H      0.517652    0.766606   -3.996684
H     -4.181758    0.416854   -2.893300
H     -3.355092    1.061371    2.125999
H     -4.128142    3.018279    3.414749
H     -5.377527    4.838363    2.295367
H     -5.879769    4.704564   -0.132783
