
  xtb     03162221353D
 xtb: 6.3.3 (4ae9cef)
 66 72  0     0  0            999 V2000
   -1.3055   -2.6041   -2.4576 C   0  0  0  0  0  0  0  0  0  0  0  0
   -1.1311   -3.5938   -3.4098 C   0  0  0  0  0  0  0  0  0  0  0  0
   -0.0733   -4.4800   -3.3090 C   0  0  0  0  0  0  0  0  0  0  0  0
    0.7985   -4.3842   -2.2376 C   0  0  0  0  0  0  0  0  0  0  0  0
    0.6261   -3.3950   -1.2865 C   0  0  0  0  0  0  0  0  0  0  0  0
   -0.4156   -2.4812   -1.3987 C   0  0  0  0  0  0  0  0  0  0  0  0
   -0.5958   -1.4042   -0.3532 C   0  0  0  0  0  0  0  0  0  0  0  0
    0.7168   -0.6443   -0.0131 C   0  0  0  0  0  0  0  0  0  0  0  0
    0.8874   -0.4592    1.4733 C   0  0  0  0  0  0  0  0  0  0  0  0
    1.9115   -1.1084    2.1489 C   0  0  0  0  0  0  0  0  0  0  0  0
    2.0738   -0.9289    3.5112 C   0  0  0  0  0  0  0  0  0  0  0  0
    1.2083   -0.1061    4.2106 C   0  0  0  0  0  0  0  0  0  0  0  0
    0.1763    0.5338    3.5446 C   0  0  0  0  0  0  0  0  0  0  0  0
    0.0161    0.3592    2.1829 C   0  0  0  0  0  0  0  0  0  0  0  0
    0.5498    0.6275   -0.7020 N   0  0  0  0  0  0  0  0  0  0  0  0
    1.2408    1.7787   -0.4897 C   0  0  0  0  0  0  0  0  0  0  0  0
    2.4643    1.6217    0.3363 C   0  0  0  0  0  0  0  0  0  0  0  0
    2.6672    2.3045    1.4880 C   0  0  0  0  0  0  0  0  0  0  0  0
    4.1338    1.8888    2.2946 S   0  0  0  0  0  0  0  0  0  0  0  0
    4.5459    0.7748    1.0213 C   0  0  0  0  0  0  0  0  0  0  0  0
    3.5547    0.7454    0.0226 C   0  0  0  0  0  0  0  0  0  0  0  0
    3.7493   -0.0587   -1.1026 C   0  0  0  0  0  0  0  0  0  0  0  0
    4.8858   -0.8321   -1.1882 C   0  0  0  0  0  0  0  0  0  0  0  0
    5.8448   -0.8140   -0.1752 C   0  0  0  0  0  0  0  0  0  0  0  0
    5.6887   -0.0059    0.9318 C   0  0  0  0  0  0  0  0  0  0  0  0
    0.8674    2.8381   -0.9518 O   0  0  0  0  0  0  0  0  0  0  0  0
   -0.6988    0.6599   -1.4282 C   0  0  0  0  0  0  0  0  0  0  0  0
   -0.5005    0.3285   -2.9182 C   0  0  0  0  0  0  0  0  0  0  0  0
    0.7452   -0.0313   -3.2016 O   0  0  0  0  0  0  0  0  0  0  0  0
   -1.3788    0.3874   -3.7330 O   0  0  0  0  0  0  0  0  0  0  0  0
   -1.4978   -0.3510   -0.7907 N   0  0  0  0  0  0  0  0  0  0  0  0
   -2.6896   -0.1619   -0.1368 C   0  0  0  0  0  0  0  0  0  0  0  0
   -3.4385    1.0594   -0.4911 C   0  0  0  0  0  0  0  0  0  0  0  0
   -3.6497    1.5309   -1.7482 C   0  0  0  0  0  0  0  0  0  0  0  0
   -4.6279    2.9486   -1.8013 S   0  0  0  0  0  0  0  0  0  0  0  0
   -4.7712    2.9508   -0.0639 C   0  0  0  0  0  0  0  0  0  0  0  0
   -4.0918    1.8603    0.5078 C   0  0  0  0  0  0  0  0  0  0  0  0
   -4.1015    1.7042    1.8940 C   0  0  0  0  0  0  0  0  0  0  0  0
   -4.7767    2.6212    2.6679 C   0  0  0  0  0  0  0  0  0  0  0  0
   -5.4449    3.6987    2.0863 C   0  0  0  0  0  0  0  0  0  0  0  0
   -5.4508    3.8726    0.7180 C   0  0  0  0  0  0  0  0  0  0  0  0
   -3.0922   -0.9730    0.6717 O   0  0  0  0  0  0  0  0  0  0  0  0
   -2.1445   -1.9297   -2.5369 H   0  0  0  0  0  0  0  0  0  0  0  0
   -1.8287   -3.6716   -4.2301 H   0  0  0  0  0  0  0  0  0  0  0  0
    0.0636   -5.2502   -4.0531 H   0  0  0  0  0  0  0  0  0  0  0  0
    1.6139   -5.0853   -2.1383 H   0  0  0  0  0  0  0  0  0  0  0  0
    1.2989   -3.3459   -0.4426 H   0  0  0  0  0  0  0  0  0  0  0  0
   -1.0302   -1.8567    0.5478 H   0  0  0  0  0  0  0  0  0  0  0  0
    1.5815   -1.1768   -0.4214 H   0  0  0  0  0  0  0  0  0  0  0  0
    2.5945   -1.7444    1.6033 H   0  0  0  0  0  0  0  0  0  0  0  0
    2.8815   -1.4282    4.0249 H   0  0  0  0  0  0  0  0  0  0  0  0
    1.3383    0.0380    5.2725 H   0  0  0  0  0  0  0  0  0  0  0  0
   -0.5045    1.1738    4.0857 H   0  0  0  0  0  0  0  0  0  0  0  0
   -0.7837    0.8719    1.6680 H   0  0  0  0  0  0  0  0  0  0  0  0
    2.0093    3.0204    1.9405 H   0  0  0  0  0  0  0  0  0  0  0  0
    3.0176   -0.0540   -1.8970 H   0  0  0  0  0  0  0  0  0  0  0  0
    5.0423   -1.4592   -2.0532 H   0  0  0  0  0  0  0  0  0  0  0  0
    6.7259   -1.4310   -0.2654 H   0  0  0  0  0  0  0  0  0  0  0  0
    6.4344    0.0285    1.7103 H   0  0  0  0  0  0  0  0  0  0  0  0
   -1.1506    1.6597   -1.3693 H   0  0  0  0  0  0  0  0  0  0  0  0
    0.8389   -0.2248   -4.1492 H   0  0  0  0  0  0  0  0  0  0  0  0
   -3.2978    1.1145   -2.6733 H   0  0  0  0  0  0  0  0  0  0  0  0
   -3.5968    0.8590    2.3363 H   0  0  0  0  0  0  0  0  0  0  0  0
   -4.7925    2.5068    3.7415 H   0  0  0  0  0  0  0  0  0  0  0  0
   -5.9658    4.4048    2.7152 H   0  0  0  0  0  0  0  0  0  0  0  0
   -5.9662    4.7024    0.2601 H   0  0  0  0  0  0  0  0  0  0  0  0
  1  2  4  0  0  0  0
  2  3  4  0  0  0  0
  3  4  4  0  0  0  0
  4  5  4  0  0  0  0
  1  6  4  0  0  0  0
  5  6  4  0  0  0  0
  6  7  1  0  0  0  0
  7  8  1  0  0  0  0
  8  9  1  0  0  0  0
  9 10  4  0  0  0  0
 10 11  4  0  0  0  0
 11 12  4  0  0  0  0
 12 13  4  0  0  0  0
  9 14  4  0  0  0  0
 13 14  4  0  0  0  0
  8 15  1  0  0  0  0
 15 16  4  0  0  0  0
 16 17  1  0  0  0  0
 17 18  2  0  0  0  0
 18 19  1  0  0  0  0
 19 20  1  0  0  0  0
 17 21  1  0  0  0  0
 20 21  4  0  0  0  0
 21 22  4  0  0  0  0
 22 23  4  0  0  0  0
 23 24  4  0  0  0  0
 20 25  4  0  0  0  0
 24 25  4  0  0  0  0
 16 26  2  0  0  0  0
 15 27  1  0  0  0  0
 27 28  1  0  0  0  0
 28 29  1  0  0  0  0
 28 30  2  0  0  0  0
  7 31  1  0  0  0  0
 27 31  1  0  0  0  0
 31 32  1  0  0  0  0
 32 33  1  0  0  0  0
 33 34  2  0  0  0  0
 34 35  1  0  0  0  0
 35 36  1  0  0  0  0
 33 37  1  0  0  0  0
 36 37  4  0  0  0  0
 37 38  4  0  0  0  0
 38 39  4  0  0  0  0
 39 40  4  0  0  0  0
 36 41  4  0  0  0  0
 40 41  4  0  0  0  0
 32 42  2  0  0  0  0
  1 43  1  0  0  0  0
  2 44  1  0  0  0  0
  3 45  1  0  0  0  0
  4 46  1  0  0  0  0
  5 47  1  0  0  0  0
  7 48  1  0  0  0  0
  8 49  1  0  0  0  0
 10 50  1  0  0  0  0
 11 51  1  0  0  0  0
 12 52  1  0  0  0  0
 13 53  1  0  0  0  0
 14 54  1  0  0  0  0
 18 55  1  0  0  0  0
 22 56  1  0  0  0  0
 23 57  1  0  0  0  0
 24 58  1  0  0  0  0
 25 59  1  0  0  0  0
 27 60  1  0  0  0  0
 29 61  1  0  0  0  0
 34 62  1  0  0  0  0
 38 63  1  0  0  0  0
 39 64  1  0  0  0  0
 40 65  1  0  0  0  0
 41 66  1  0  0  0  0
M  END
