
  xtb     03172202193D
 xtb: 6.3.3 (4ae9cef)
 19 19  0     0  0            999 V2000
    3.2119   -0.3393   -0.4598 C   0  0  0  0  0  0  0  0  0  0  0  0
    2.2242    0.1750    0.2468 C   0  0  0  0  0  0  0  0  0  0  0  0
    1.1564   -0.6309    0.9265 C   0  0  0  0  0  0  0  0  0  0  0  0
   -0.1964   -0.2250    0.4063 C   0  0  0  0  0  0  0  0  0  0  0  0
   -0.6505   -0.7147   -0.8120 C   0  0  0  0  0  0  0  0  0  0  0  0
   -1.8745   -0.3264   -1.3237 C   0  0  0  0  0  0  0  0  0  0  0  0
   -2.6548    0.5682   -0.6094 C   0  0  0  0  0  0  0  0  0  0  0  0
   -4.1910    1.0569   -1.2393 Cl  0  0  0  0  0  0  0  0  0  0  0  0
   -2.2207    1.0718    0.6048 C   0  0  0  0  0  0  0  0  0  0  0  0
   -0.9932    0.6732    1.1031 C   0  0  0  0  0  0  0  0  0  0  0  0
    3.9551    0.2786   -0.9337 H   0  0  0  0  0  0  0  0  0  0  0  0
    3.3260   -1.4038   -0.5856 H   0  0  0  0  0  0  0  0  0  0  0  0
    2.1302    1.2469    0.3608 H   0  0  0  0  0  0  0  0  0  0  0  0
    1.2026   -0.4492    2.0035 H   0  0  0  0  0  0  0  0  0  0  0  0
    1.3269   -1.6932    0.7433 H   0  0  0  0  0  0  0  0  0  0  0  0
   -0.0374   -1.4077   -1.3683 H   0  0  0  0  0  0  0  0  0  0  0  0
   -2.2229   -0.7136   -2.2682 H   0  0  0  0  0  0  0  0  0  0  0  0
   -2.8368    1.7660    1.1543 H   0  0  0  0  0  0  0  0  0  0  0  0
   -0.6552    1.0673    2.0504 H   0  0  0  0  0  0  0  0  0  0  0  0
  1  2  2  0  0  0  0
  2  3  1  0  0  0  0
  3  4  1  0  0  0  0
  4  5  4  0  0  0  0
  5  6  4  0  0  0  0
  6  7  4  0  0  0  0
  7  8  1  0  0  0  0
  7  9  4  0  0  0  0
  4 10  4  0  0  0  0
  9 10  4  0  0  0  0
  1 11  1  0  0  0  0
  1 12  1  0  0  0  0
  2 13  1  0  0  0  0
  3 14  1  0  0  0  0
  3 15  1  0  0  0  0
  5 16  1  0  0  0  0
  6 17  1  0  0  0  0
  9 18  1  0  0  0  0
 10 19  1  0  0  0  0
M  END
