54

C     -1.859736   -1.643031   -1.068138
C     -2.752695   -2.688651   -1.317877
C     -3.394838   -3.327529   -0.261384
C     -3.146721   -2.921808    1.046014
C     -2.257963   -1.874275    1.296161
C     -1.597168   -1.217492    0.244057
C     -0.635860   -0.087658    0.564296
C      0.728024   -0.061256   -0.174753
C      1.700100   -1.071244    0.406591
C      1.823049   -2.333895   -0.198227
C      2.683374   -3.298062    0.329529
C      3.435657   -3.014940    1.466129
C      3.324535   -1.769705    2.078529
C      2.457034   -0.807606    1.558156
N      1.126930    1.342794   -0.028011
C      2.217625    1.996352   -0.562623
C      3.170560    1.213356   -1.319011
C      4.500556    1.029091   -0.991731
Br     5.391980    1.691446    0.560895
O      5.117750    0.259223   -1.931590
C      4.191393   -0.038287   -2.876024
C      2.982030    0.532005   -2.558648
O      2.370431    3.206935   -0.412817
C      0.006226    2.151441    0.431494
C      0.173252    2.763775    1.847104
O      1.311792    2.419894    2.487240
O     -0.647859    3.464844    2.423133
N     -1.170227    1.277502    0.423601
C     -1.962520    1.536250   -0.689550
C     -3.310418    2.026278   -0.439031
C     -4.062468    2.068958    0.724854
Br    -3.612127    1.457431    2.478492
O     -5.286694    2.625079    0.477036
C     -5.340090    2.936605   -0.838208
C     -4.164844    2.582810   -1.450145
O     -1.518397    1.423057   -1.832597
H     -1.388924   -1.160738   -1.922004
H     -2.953596   -2.998552   -2.341035
H     -4.090612   -4.139970   -0.456674
H     -3.648649   -3.416332    1.873649
H     -2.086800   -1.575797    2.329727
H     -0.416374   -0.163073    1.641488
H      0.605983   -0.234694   -1.249792
H      1.242589   -2.582725   -1.084587
H      2.762218   -4.273949   -0.143023
H      4.107823   -3.764352    1.875638
H      3.912859   -1.546574    2.965287
H      2.389825    0.153176    2.063478
H      4.542771   -0.642871   -3.700212
H      2.077515    0.478192   -3.150182
H     -0.124251    3.003597   -0.249990
H      1.264869    2.912998    3.333944
H     -6.261025    3.391899   -1.180309
H     -3.927898    2.710075   -2.498347
