88

C     -1.056679   -3.200877   -1.346000
O     -0.593103   -2.259037   -2.228308
C     -0.495566   -2.616588   -3.601446
C     -1.435171   -4.497663   -1.719688
C     -1.916736   -5.399885   -0.770270
C     -2.025530   -5.016049    0.559683
C     -1.642409   -3.733045    0.947630
C     -1.145250   -2.807115    0.008169
C     -0.747055   -1.415235    0.521212
C      0.701792   -1.027782    0.130986
C      1.583103   -0.836861    1.359528
C      1.670206    0.398282    2.023082
C      2.473377    0.554252    3.151794
C      3.191670   -0.525992    3.646879
C      3.100661   -1.769694    3.019252
C      2.296892   -1.936648    1.886375
O      2.147198   -3.125356    1.214803
C      2.768175   -4.276378    1.763744
N      0.548569    0.147997   -0.735247
C      1.459456    0.573321   -1.684065
C      2.838091    0.160000   -1.522032
C      3.833974    0.905561   -0.907399
C      3.901472    2.218658   -0.263843
C      4.744608    2.427342    0.838370
C      4.800300    3.669609    1.475801
C      4.017793    4.723773    1.016349
C      3.184609    4.540276   -0.084354
C      3.128552    3.295458   -0.720327
O      5.009202    0.201266   -0.924379
C      4.772650   -0.978745   -1.557970
C      5.927724   -1.886406   -1.698480
C      3.456251   -1.048379   -1.954270
O      1.125686    1.298348   -2.618528
C     -0.852498    0.508845   -0.933595
C     -1.041443    2.037552   -0.672597
O     -0.232745    2.563156    0.271813
O     -1.899792    2.756004   -1.162939
N     -1.598871   -0.354456   -0.023742
C     -2.956905   -0.370583    0.226450
C     -3.811128    0.423182   -0.629473
C     -4.509387    1.561908   -0.254578
C     -4.597318    2.366996    0.958371
C     -4.712273    1.772092    2.221413
C     -4.746217    2.558791    3.376048
C     -4.675991    3.949235    3.281232
C     -4.570001    4.554452    2.032179
C     -4.535913    3.767856    0.877124
O     -5.209862    2.044715   -1.325400
C     -4.976825    1.214069   -2.378692
C     -5.646233    1.562143   -3.646746
C     -4.121779    0.202080   -2.003407
O     -3.441385   -1.049008    1.131050
H     -1.477004   -2.869097   -4.016739
H      0.222290   -3.429426   -3.749132
H     -0.121953   -1.743591   -4.144152
H     -1.369139   -4.839061   -2.747243
H     -2.222230   -6.397808   -1.077671
H     -2.420687   -5.709504    1.297576
H     -1.754647   -3.445324    1.993788
H     -0.875496   -1.393453    1.611424
H      1.170005   -1.796277   -0.491955
H      1.124305    1.264180    1.662898
H      2.543263    1.523233    3.638050
H      3.825071   -0.404074    4.520734
H      3.673377   -2.589023    3.440339
H      2.534016   -5.128404    1.111563
H      3.860515   -4.167809    1.789076
H      2.368676   -4.498133    2.757976
H      5.357317    1.610880    1.214434
H      5.459003    3.808065    2.328368
H      4.062030    5.691638    1.510842
H      2.580094    5.364194   -0.453790
H      2.485115    3.187474   -1.588661
H      5.605215   -2.887291   -2.005674
H      6.624549   -1.502840   -2.449417
H      6.463256   -1.980404   -0.749451
H      2.986801   -1.867277   -2.481011
H     -1.141925    0.297932   -1.968711
H     -0.532081    3.496985    0.340776
H     -4.786652    0.689905    2.318745
H     -4.835890    2.084699    4.349346
H     -4.709003    4.559495    4.181855
H     -4.519340    5.638931    1.952155
H     -4.442226    4.249557   -0.093715
H     -6.652142    1.951396   -3.466189
H     -5.072317    2.325018   -4.179419
H     -5.732634    0.682590   -4.294037
H     -3.767477   -0.602812   -2.634540
