
  xtb     03172200523D
 xtb: 6.3.3 (4ae9cef)
 74 80  0     0  0            999 V2000
   -2.2833   -2.6301   -0.2366 C   0  0  0  0  0  0  0  0  0  0  0  0
   -2.9419   -3.3285   -1.2074 C   0  0  0  0  0  0  0  0  0  0  0  0
   -3.0913   -2.7972   -2.5055 C   0  0  0  0  0  0  0  0  0  0  0  0
   -3.7760   -3.4836   -3.5295 C   0  0  0  0  0  0  0  0  0  0  0  0
   -3.9078   -2.9296   -4.7721 C   0  0  0  0  0  0  0  0  0  0  0  0
   -3.3619   -1.6656   -5.0486 C   0  0  0  0  0  0  0  0  0  0  0  0
   -2.6914   -0.9756   -4.0781 C   0  0  0  0  0  0  0  0  0  0  0  0
   -2.5392   -1.5206   -2.7860 C   0  0  0  0  0  0  0  0  0  0  0  0
   -1.8573   -0.8267   -1.7669 C   0  0  0  0  0  0  0  0  0  0  0  0
   -1.7349   -1.3634   -0.5122 C   0  0  0  0  0  0  0  0  0  0  0  0
   -0.9931   -0.6301    0.5784 C   0  0  0  0  0  0  0  0  0  0  0  0
    0.5427   -0.6944    0.3855 C   0  0  0  0  0  0  0  0  0  0  0  0
    1.2382   -1.0395    1.6817 C   0  0  0  0  0  0  0  0  0  0  0  0
    1.8843   -0.1083    2.4497 C   0  0  0  0  0  0  0  0  0  0  0  0
    2.5042   -0.4700    3.6644 C   0  0  0  0  0  0  0  0  0  0  0  0
    3.1793    0.4733    4.4662 C   0  0  0  0  0  0  0  0  0  0  0  0
    3.7709    0.0938    5.6386 C   0  0  0  0  0  0  0  0  0  0  0  0
    3.7155   -1.2436    6.0615 C   0  0  0  0  0  0  0  0  0  0  0  0
    3.0692   -2.1813    5.3053 C   0  0  0  0  0  0  0  0  0  0  0  0
    2.4483   -1.8220    4.0917 C   0  0  0  0  0  0  0  0  0  0  0  0
    1.7752   -2.7616    3.2818 C   0  0  0  0  0  0  0  0  0  0  0  0
    1.1876   -2.3819    2.1105 C   0  0  0  0  0  0  0  0  0  0  0  0
    0.8727    0.6206   -0.1192 N   0  0  0  0  0  0  0  0  0  0  0  0
    1.7464    0.9451   -1.0944 C   0  0  0  0  0  0  0  0  0  0  0  0
    2.6742   -0.1167   -1.5677 C   0  0  0  0  0  0  0  0  0  0  0  0
    3.5051   -0.8137   -0.6952 C   0  0  0  0  0  0  0  0  0  0  0  0
    4.3849   -1.7578   -1.1862 C   0  0  0  0  0  0  0  0  0  0  0  0
    4.4350   -2.0130   -2.5571 C   0  0  0  0  0  0  0  0  0  0  0  0
    5.3339   -2.9846   -3.0583 C   0  0  0  0  0  0  0  0  0  0  0  0
    6.0611   -3.7729   -3.4617 N   0  0  0  0  0  0  0  0  0  0  0  0
    3.6098   -1.3081   -3.4343 C   0  0  0  0  0  0  0  0  0  0  0  0
    2.7413   -0.3574   -2.9376 C   0  0  0  0  0  0  0  0  0  0  0  0
    1.7556    2.0766   -1.5540 O   0  0  0  0  0  0  0  0  0  0  0  0
   -0.1231    1.6018    0.2589 C   0  0  0  0  0  0  0  0  0  0  0  0
   -0.3695    2.5950   -0.9047 C   0  0  0  0  0  0  0  0  0  0  0  0
   -0.0625    3.8359   -0.5389 O   0  0  0  0  0  0  0  0  0  0  0  0
   -0.9268    2.3038   -1.9277 O   0  0  0  0  0  0  0  0  0  0  0  0
   -1.2759    0.7998    0.5845 N   0  0  0  0  0  0  0  0  0  0  0  0
   -2.5396    1.2374    0.8158 C   0  0  0  0  0  0  0  0  0  0  0  0
   -2.7161    2.7215    0.7352 C   0  0  0  0  0  0  0  0  0  0  0  0
   -2.2180    3.5585    1.7278 C   0  0  0  0  0  0  0  0  0  0  0  0
   -2.4172    4.9224    1.6483 C   0  0  0  0  0  0  0  0  0  0  0  0
   -3.1176    5.4555    0.5659 C   0  0  0  0  0  0  0  0  0  0  0  0
   -3.3066    6.8542    0.4706 C   0  0  0  0  0  0  0  0  0  0  0  0
   -3.4539    7.9880    0.3893 N   0  0  0  0  0  0  0  0  0  0  0  0
   -3.6345    4.6150   -0.4212 C   0  0  0  0  0  0  0  0  0  0  0  0
   -3.4405    3.2516   -0.3274 C   0  0  0  0  0  0  0  0  0  0  0  0
   -3.4462    0.4765    1.0731 O   0  0  0  0  0  0  0  0  0  0  0  0
   -2.1881   -3.0378    0.7597 H   0  0  0  0  0  0  0  0  0  0  0  0
   -3.3680   -4.2974   -0.9900 H   0  0  0  0  0  0  0  0  0  0  0  0
   -4.1973   -4.4549   -3.3122 H   0  0  0  0  0  0  0  0  0  0  0  0
   -4.4356   -3.4594   -5.5516 H   0  0  0  0  0  0  0  0  0  0  0  0
   -3.4793   -1.2439   -6.0362 H   0  0  0  0  0  0  0  0  0  0  0  0
   -2.2713   -0.0004   -4.2784 H   0  0  0  0  0  0  0  0  0  0  0  0
   -1.4550    0.1495   -1.9947 H   0  0  0  0  0  0  0  0  0  0  0  0
   -1.2839   -1.0462    1.5508 H   0  0  0  0  0  0  0  0  0  0  0  0
    0.7942   -1.4482   -0.3698 H   0  0  0  0  0  0  0  0  0  0  0  0
    1.9481    0.9226    2.1312 H   0  0  0  0  0  0  0  0  0  0  0  0
    3.2206    1.5018    4.1367 H   0  0  0  0  0  0  0  0  0  0  0  0
    4.2859    0.8209    6.2486 H   0  0  0  0  0  0  0  0  0  0  0  0
    4.1891   -1.5246    6.9904 H   0  0  0  0  0  0  0  0  0  0  0  0
    3.0238   -3.2120    5.6258 H   0  0  0  0  0  0  0  0  0  0  0  0
    1.7357   -3.7917    3.6043 H   0  0  0  0  0  0  0  0  0  0  0  0
    0.6777   -3.1054    1.4911 H   0  0  0  0  0  0  0  0  0  0  0  0
    3.4761   -0.6076    0.3637 H   0  0  0  0  0  0  0  0  0  0  0  0
    5.0364   -2.2987   -0.5163 H   0  0  0  0  0  0  0  0  0  0  0  0
    3.6613   -1.5060   -4.4943 H   0  0  0  0  0  0  0  0  0  0  0  0
    2.1045    0.2062   -3.6021 H   0  0  0  0  0  0  0  0  0  0  0  0
    0.2167    2.1963    1.1243 H   0  0  0  0  0  0  0  0  0  0  0  0
   -0.1625    4.4431   -1.2889 H   0  0  0  0  0  0  0  0  0  0  0  0
   -1.6851    3.1402    2.5693 H   0  0  0  0  0  0  0  0  0  0  0  0
   -2.0343    5.5806    2.4139 H   0  0  0  0  0  0  0  0  0  0  0  0
   -4.1841    5.0364   -1.2497 H   0  0  0  0  0  0  0  0  0  0  0  0
   -3.8348    2.5883   -1.0818 H   0  0  0  0  0  0  0  0  0  0  0  0
  1  2  2  0  0  0  0
  2  3  4  0  0  0  0
  3  4  4  0  0  0  0
  4  5  2  0  0  0  0
  5  6  4  0  0  0  0
  6  7  2  0  0  0  0
  3  8  4  0  0  0  0
  7  8  4  0  0  0  0
  8  9  4  0  0  0  0
  1 10  4  0  0  0  0
  9 10  2  0  0  0  0
 10 11  1  0  0  0  0
 11 12  1  0  0  0  0
 12 13  1  0  0  0  0
 13 14  2  0  0  0  0
 14 15  4  0  0  0  0
 15 16  4  0  0  0  0
 16 17  2  0  0  0  0
 17 18  4  0  0  0  0
 18 19  2  0  0  0  0
 15 20  4  0  0  0  0
 19 20  4  0  0  0  0
 20 21  4  0  0  0  0
 13 22  4  0  0  0  0
 21 22  2  0  0  0  0
 12 23  1  0  0  0  0
 23 24  4  0  0  0  0
 24 25  1  0  0  0  0
 25 26  4  0  0  0  0
 26 27  4  0  0  0  0
 27 28  4  0  0  0  0
 28 29  1  0  0  0  0
 29 30  3  0  0  0  0
 28 31  4  0  0  0  0
 25 32  4  0  0  0  0
 31 32  4  0  0  0  0
 24 33  2  0  0  0  0
 23 34  1  0  0  0  0
 34 35  1  0  0  0  0
 35 36  1  0  0  0  0
 35 37  2  0  0  0  0
 11 38  1  0  0  0  0
 34 38  1  0  0  0  0
 38 39  4  0  0  0  0
 39 40  1  0  0  0  0
 40 41  4  0  0  0  0
 41 42  4  0  0  0  0
 42 43  4  0  0  0  0
 43 44  1  0  0  0  0
 44 45  3  0  0  0  0
 43 46  4  0  0  0  0
 40 47  4  0  0  0  0
 46 47  4  0  0  0  0
 39 48  2  0  0  0  0
  1 49  1  0  0  0  0
  2 50  1  0  0  0  0
  4 51  1  0  0  0  0
  5 52  1  0  0  0  0
  6 53  1  0  0  0  0
  7 54  1  0  0  0  0
  9 55  1  0  0  0  0
 11 56  1  0  0  0  0
 12 57  1  0  0  0  0
 14 58  1  0  0  0  0
 16 59  1  0  0  0  0
 17 60  1  0  0  0  0
 18 61  1  0  0  0  0
 19 62  1  0  0  0  0
 21 63  1  0  0  0  0
 22 64  1  0  0  0  0
 26 65  1  0  0  0  0
 27 66  1  0  0  0  0
 31 67  1  0  0  0  0
 32 68  1  0  0  0  0
 34 69  1  0  0  0  0
 36 70  1  0  0  0  0
 41 71  1  0  0  0  0
 42 72  1  0  0  0  0
 46 73  1  0  0  0  0
 47 74  1  0  0  0  0
M  END
