64

O      3.085983    1.797533   -1.034567
C      2.723304    0.745006   -0.514090
C      3.756876   -0.041551    0.179523
C      4.766626   -0.647042   -0.575091
C      5.808140   -1.315876    0.069545
C      5.845041   -1.374619    1.464738
C      4.840484   -0.742938    2.212270
N      4.904425   -0.759209    3.677854
O      5.800066   -1.429900    4.206758
O      4.059297   -0.093623    4.296746
C      3.793456   -0.063397    1.576554
N      1.422027    0.301609   -0.507162
C      0.890520   -0.928238    0.070851
C      1.125691   -2.103080   -0.927291
O      0.002070   -2.701891   -1.389419
O      2.213998   -2.482436   -1.341630
N     -0.513353   -0.635155    0.324139
C     -1.276064   -1.521712    1.045702
C     -2.736429   -1.324383    1.057710
C     -3.496996   -2.031012    0.120062
C     -4.885388   -1.863286    0.116060
N     -5.698641   -2.580615   -0.874784
O     -6.920935   -2.380029   -0.870952
O     -5.109950   -3.330084   -1.667516
C     -5.507220   -1.006787    1.040748
C     -4.732605   -0.331472    1.988422
C     -3.346463   -0.497146    2.005065
O     -0.812143   -2.509259    1.605709
C     -0.873373    0.711940   -0.146704
C     -1.044686    1.701994    1.007708
C     -0.315617    1.593376    2.209895
C     -0.495839    2.511014    3.243865
C     -1.401110    3.559426    3.093641
C     -2.117717    3.696571    1.904023
C     -1.942335    2.776196    0.865475
C      0.330878    1.126403   -1.035688
C      0.150277    0.916819   -2.538468
C      0.912820    1.702288   -3.423638
C      0.805914    1.546333   -4.808375
C     -0.066227    0.600964   -5.335336
C     -0.830596   -0.187503   -4.478154
C     -0.720728   -0.034963   -3.092380
H      4.739174   -0.593989   -1.664903
H      6.600362   -1.770777   -0.518574
H      6.671980   -1.887436    1.952945
H      3.034478    0.466991    2.147815
H      1.379190   -1.187064    1.012954
H      0.342243   -3.382074   -2.009969
H     -2.998485   -2.702929   -0.579160
H     -6.586511   -0.867548    1.043492
H     -5.208986    0.323427    2.718787
H     -2.751492    0.020582    2.753376
H     -1.824093    0.655793   -0.689144
H      0.400189    0.786739    2.365648
H      0.066946    2.400737    4.170646
H     -1.541918    4.274814    3.900977
H     -2.816363    4.526136    1.789920
H     -2.511909    2.913186   -0.055279
H      0.571225    2.187593   -0.886513
H      1.613107    2.443048   -3.033122
H      1.412479    2.158894   -5.472484
H     -0.146562    0.475207   -6.412034
H     -1.512059   -0.927950   -4.891144
H     -1.326472   -0.683644   -2.466054
