
  xtb     03162223243D
 xtb: 6.3.3 (4ae9cef)
 64 70  0     0  0            999 V2000
    2.5844    2.1432   -0.3218 O   0  0  0  0  0  0  0  0  0  0  0  0
    2.4581    0.9425   -0.2245 C   0  0  0  0  0  0  0  0  0  0  0  0
    3.4396    0.0907    0.5159 C   0  0  0  0  0  0  0  0  0  0  0  0
    4.1024   -0.9702   -0.0966 C   0  0  0  0  0  0  0  0  0  0  0  0
    5.0492   -1.6992    0.6068 C   0  0  0  0  0  0  0  0  0  0  0  0
    5.3343   -1.3881    1.9237 C   0  0  0  0  0  0  0  0  0  0  0  0
    4.6671   -0.3288    2.5261 C   0  0  0  0  0  0  0  0  0  0  0  0
    4.9468   -0.0040    3.9057 N   0  0  0  0  0  0  0  0  0  0  0  0
    5.8871   -0.5566    4.4321 O   0  0  0  0  0  0  0  0  0  0  0  0
    4.2171    0.7951    4.4508 O   0  0  0  0  0  0  0  0  0  0  0  0
    3.7328    0.4246    1.8304 C   0  0  0  0  0  0  0  0  0  0  0  0
    1.4133    0.2799   -0.7887 N   0  0  0  0  0  0  0  0  0  0  0  0
    0.9667   -1.0574   -0.5282 C   0  0  0  0  0  0  0  0  0  0  0  0
    1.1348   -1.9530   -1.7708 C   0  0  0  0  0  0  0  0  0  0  0  0
    0.0729   -2.7132   -1.9874 O   0  0  0  0  0  0  0  0  0  0  0  0
    2.1333   -1.9781   -2.4342 O   0  0  0  0  0  0  0  0  0  0  0  0
   -0.4256   -0.8968   -0.1580 N   0  0  0  0  0  0  0  0  0  0  0  0
   -0.9336   -1.6624    0.8428 C   0  0  0  0  0  0  0  0  0  0  0  0
   -2.3309   -1.3229    1.2528 C   0  0  0  0  0  0  0  0  0  0  0  0
   -3.3619   -1.2897    0.3281 C   0  0  0  0  0  0  0  0  0  0  0  0
   -4.6408   -0.9614    0.7551 C   0  0  0  0  0  0  0  0  0  0  0  0
   -5.7050   -0.8933   -0.2182 N   0  0  0  0  0  0  0  0  0  0  0  0
   -6.8333   -0.7358    0.1901 O   0  0  0  0  0  0  0  0  0  0  0  0
   -5.3966   -0.9864   -1.3874 O   0  0  0  0  0  0  0  0  0  0  0  0
   -4.9107   -0.6788    2.0880 C   0  0  0  0  0  0  0  0  0  0  0  0
   -3.8808   -0.7451    3.0081 C   0  0  0  0  0  0  0  0  0  0  0  0
   -2.6001   -1.0733    2.5958 C   0  0  0  0  0  0  0  0  0  0  0  0
   -0.2925   -2.5556    1.3564 O   0  0  0  0  0  0  0  0  0  0  0  0
   -0.9230    0.4087   -0.5858 C   0  0  0  0  0  0  0  0  0  0  0  0
   -1.3034    1.2739    0.5916 C   0  0  0  0  0  0  0  0  0  0  0  0
   -0.4881    1.3475    1.7144 C   0  0  0  0  0  0  0  0  0  0  0  0
   -0.8497    2.1377    2.7899 C   0  0  0  0  0  0  0  0  0  0  0  0
   -2.0298    2.8609    2.7546 C   0  0  0  0  0  0  0  0  0  0  0  0
   -2.8427    2.7981    1.6360 C   0  0  0  0  0  0  0  0  0  0  0  0
   -2.4800    2.0101    0.5587 C   0  0  0  0  0  0  0  0  0  0  0  0
    0.2776    0.9999   -1.3593 C   0  0  0  0  0  0  0  0  0  0  0  0
    0.2829    0.8052   -2.8592 C   0  0  0  0  0  0  0  0  0  0  0  0
    1.2388    1.5161   -3.5793 C   0  0  0  0  0  0  0  0  0  0  0  0
    1.3590    1.3507   -4.9456 C   0  0  0  0  0  0  0  0  0  0  0  0
    0.5223    0.4720   -5.6136 C   0  0  0  0  0  0  0  0  0  0  0  0
   -0.4288   -0.2387   -4.9052 C   0  0  0  0  0  0  0  0  0  0  0  0
   -0.5472   -0.0785   -3.5338 C   0  0  0  0  0  0  0  0  0  0  0  0
    3.8801   -1.2161   -1.1240 H   0  0  0  0  0  0  0  0  0  0  0  0
    5.5628   -2.5155    0.1238 H   0  0  0  0  0  0  0  0  0  0  0  0
    6.0600   -1.9471    2.4945 H   0  0  0  0  0  0  0  0  0  0  0  0
    3.2478    1.2606    2.3125 H   0  0  0  0  0  0  0  0  0  0  0  0
    1.5169   -1.5460    0.2905 H   0  0  0  0  0  0  0  0  0  0  0  0
    0.2131   -3.3010   -2.7484 H   0  0  0  0  0  0  0  0  0  0  0  0
   -3.1970   -1.5312   -0.7109 H   0  0  0  0  0  0  0  0  0  0  0  0
   -5.9169   -0.4192    2.3792 H   0  0  0  0  0  0  0  0  0  0  0  0
   -4.0752   -0.5406    4.0490 H   0  0  0  0  0  0  0  0  0  0  0  0
   -1.7936   -1.1327    3.3101 H   0  0  0  0  0  0  0  0  0  0  0  0
   -1.7888    0.3047   -1.2443 H   0  0  0  0  0  0  0  0  0  0  0  0
    0.4297    0.7790    1.7572 H   0  0  0  0  0  0  0  0  0  0  0  0
   -0.2080    2.1880    3.6563 H   0  0  0  0  0  0  0  0  0  0  0  0
   -2.3132    3.4745    3.5959 H   0  0  0  0  0  0  0  0  0  0  0  0
   -3.7619    3.3628    1.6011 H   0  0  0  0  0  0  0  0  0  0  0  0
   -3.1145    1.9636   -0.3147 H   0  0  0  0  0  0  0  0  0  0  0  0
    0.4110    2.0628   -1.1310 H   0  0  0  0  0  0  0  0  0  0  0  0
    1.8924    2.1966   -3.0541 H   0  0  0  0  0  0  0  0  0  0  0  0
    2.1062    1.9077   -5.4900 H   0  0  0  0  0  0  0  0  0  0  0  0
    0.6124    0.3409   -6.6813 H   0  0  0  0  0  0  0  0  0  0  0  0
   -1.0855   -0.9256   -5.4184 H   0  0  0  0  0  0  0  0  0  0  0  0
   -1.2938   -0.6557   -3.0094 H   0  0  0  0  0  0  0  0  0  0  0  0
  1  2  2  0  0  0  0
  2  3  1  0  0  0  0
  3  4  4  0  0  0  0
  4  5  4  0  0  0  0
  5  6  4  0  0  0  0
  6  7  4  0  0  0  0
  7  8  1  0  0  0  0
  8  9  4  0  0  0  0
  8 10  4  0  0  0  0
  9 10  1  0  0  0  0
  3 11  4  0  0  0  0
  7 11  4  0  0  0  0
  2 12  4  0  0  0  0
 12 13  1  0  0  0  0
 13 14  1  0  0  0  0
 14 15  1  0  0  0  0
 14 16  2  0  0  0  0
 13 17  1  0  0  0  0
 17 18  4  0  0  0  0
 18 19  1  0  0  0  0
 19 20  4  0  0  0  0
 20 21  4  0  0  0  0
 21 22  1  0  0  0  0
 22 23  4  0  0  0  0
 22 24  4  0  0  0  0
 23 24  1  0  0  0  0
 21 25  4  0  0  0  0
 25 26  4  0  0  0  0
 19 27  4  0  0  0  0
 26 27  4  0  0  0  0
 18 28  2  0  0  0  0
 17 29  1  0  0  0  0
 29 30  1  0  0  0  0
 30 31  4  0  0  0  0
 31 32  4  0  0  0  0
 32 33  4  0  0  0  0
 33 34  4  0  0  0  0
 30 35  4  0  0  0  0
 34 35  4  0  0  0  0
 12 36  1  0  0  0  0
 29 36  1  0  0  0  0
 36 37  1  0  0  0  0
 37 38  4  0  0  0  0
 38 39  4  0  0  0  0
 39 40  4  0  0  0  0
 40 41  4  0  0  0  0
 37 42  4  0  0  0  0
 41 42  4  0  0  0  0
  4 43  1  0  0  0  0
  5 44  1  0  0  0  0
  6 45  1  0  0  0  0
 11 46  1  0  0  0  0
 13 47  1  0  0  0  0
 15 48  1  0  0  0  0
 20 49  1  0  0  0  0
 25 50  1  0  0  0  0
 26 51  1  0  0  0  0
 27 52  1  0  0  0  0
 29 53  1  0  0  0  0
 31 54  1  0  0  0  0
 32 55  1  0  0  0  0
 33 56  1  0  0  0  0
 34 57  1  0  0  0  0
 35 58  1  0  0  0  0
 36 59  1  0  0  0  0
 38 60  1  0  0  0  0
 39 61  1  0  0  0  0
 40 62  1  0  0  0  0
 41 63  1  0  0  0  0
 42 64  1  0  0  0  0
M  END
