
  xtb     03162222433D
 xtb: 6.3.3 (4ae9cef)
 72 76  0     0  0            999 V2000
   -2.5609   -2.2376   -0.3225 C   0  0  0  0  0  0  0  0  0  0  0  0
   -2.8509   -1.7598   -1.7245 C   0  0  0  0  0  0  0  0  0  0  0  0
   -3.5669   -2.6512   -2.4273 F   0  0  0  0  0  0  0  0  0  0  0  0
   -1.7587   -1.5252   -2.4644 F   0  0  0  0  0  0  0  0  0  0  0  0
   -3.5805   -0.6284   -1.7371 F   0  0  0  0  0  0  0  0  0  0  0  0
   -3.2884   -3.3473    0.1029 C   0  0  0  0  0  0  0  0  0  0  0  0
   -3.1382   -3.8561    1.3773 C   0  0  0  0  0  0  0  0  0  0  0  0
   -2.2583   -3.2424    2.2501 C   0  0  0  0  0  0  0  0  0  0  0  0
   -1.5468   -2.1343    1.8364 C   0  0  0  0  0  0  0  0  0  0  0  0
   -1.6700   -1.6030    0.5525 C   0  0  0  0  0  0  0  0  0  0  0  0
   -0.7776   -0.4266    0.2468 C   0  0  0  0  0  0  0  0  0  0  0  0
    0.5244   -0.8371   -0.4961 C   0  0  0  0  0  0  0  0  0  0  0  0
    1.6441   -1.4992    0.2622 C   0  0  0  0  0  0  0  0  0  0  0  0
    2.5552   -2.3090   -0.4280 C   0  0  0  0  0  0  0  0  0  0  0  0
    2.3400   -2.6784   -1.8723 C   0  0  0  0  0  0  0  0  0  0  0  0
    3.3602   -3.3797   -2.3853 F   0  0  0  0  0  0  0  0  0  0  0  0
    2.1567   -1.6443   -2.7034 F   0  0  0  0  0  0  0  0  0  0  0  0
    1.2489   -3.4683   -2.0159 F   0  0  0  0  0  0  0  0  0  0  0  0
    3.6526   -2.8601    0.2208 C   0  0  0  0  0  0  0  0  0  0  0  0
    3.8620   -2.6172    1.5649 C   0  0  0  0  0  0  0  0  0  0  0  0
    2.9587   -1.8385    2.2629 C   0  0  0  0  0  0  0  0  0  0  0  0
    1.8654   -1.2892    1.6173 C   0  0  0  0  0  0  0  0  0  0  0  0
    0.9591    0.4088   -1.1410 N   0  0  0  0  0  0  0  0  0  0  0  0
    1.7644    1.2849   -0.3596 C   0  0  0  0  0  0  0  0  0  0  0  0
    2.7979    1.9983   -1.1914 C   0  0  0  0  0  0  0  0  0  0  0  0
    3.9594    1.0322   -1.1971 C   0  0  0  0  0  0  0  0  0  0  0  0
    4.6608    0.7860   -0.0228 C   0  0  0  0  0  0  0  0  0  0  0  0
    5.6887   -0.1383   -0.0023 C   0  0  0  0  0  0  0  0  0  0  0  0
    6.0256   -0.8279   -1.1553 C   0  0  0  0  0  0  0  0  0  0  0  0
    5.3329   -0.5845   -2.3285 C   0  0  0  0  0  0  0  0  0  0  0  0
    4.3011    0.3383   -2.3490 C   0  0  0  0  0  0  0  0  0  0  0  0
    1.7579    1.2754    0.8429 O   0  0  0  0  0  0  0  0  0  0  0  0
   -0.2728    0.9465   -1.6714 C   0  0  0  0  0  0  0  0  0  0  0  0
   -0.2349    2.4730   -1.8399 C   0  0  0  0  0  0  0  0  0  0  0  0
   -0.5158    2.8342   -3.0856 O   0  0  0  0  0  0  0  0  0  0  0  0
    0.2040    3.2115   -0.9960 O   0  0  0  0  0  0  0  0  0  0  0  0
   -1.2870    0.5883   -0.6576 N   0  0  0  0  0  0  0  0  0  0  0  0
   -2.2451    1.5088   -0.3983 C   0  0  0  0  0  0  0  0  0  0  0  0
   -3.1078    1.2674    0.8235 C   0  0  0  0  0  0  0  0  0  0  0  0
   -3.9903    2.4571    1.0798 C   0  0  0  0  0  0  0  0  0  0  0  0
   -5.3525    2.4068    0.8261 C   0  0  0  0  0  0  0  0  0  0  0  0
   -6.1464    3.5192    1.0460 C   0  0  0  0  0  0  0  0  0  0  0  0
   -5.5828    4.6929    1.5147 C   0  0  0  0  0  0  0  0  0  0  0  0
   -4.2215    4.7518    1.7612 C   0  0  0  0  0  0  0  0  0  0  0  0
   -3.4292    3.6393    1.5455 C   0  0  0  0  0  0  0  0  0  0  0  0
   -2.3692    2.4622   -1.1446 O   0  0  0  0  0  0  0  0  0  0  0  0
   -3.9787   -3.8194   -0.5783 H   0  0  0  0  0  0  0  0  0  0  0  0
   -3.7078   -4.7192    1.6826 H   0  0  0  0  0  0  0  0  0  0  0  0
   -2.1294   -3.6192    3.2529 H   0  0  0  0  0  0  0  0  0  0  0  0
   -0.8721   -1.6604    2.5321 H   0  0  0  0  0  0  0  0  0  0  0  0
   -0.5070    0.0526    1.1966 H   0  0  0  0  0  0  0  0  0  0  0  0
    0.2181   -1.4913   -1.3173 H   0  0  0  0  0  0  0  0  0  0  0  0
    4.3437   -3.4774   -0.3308 H   0  0  0  0  0  0  0  0  0  0  0  0
    4.7229   -3.0387    2.0594 H   0  0  0  0  0  0  0  0  0  0  0  0
    3.1066   -1.6450    3.3143 H   0  0  0  0  0  0  0  0  0  0  0  0
    1.2005   -0.6587    2.1811 H   0  0  0  0  0  0  0  0  0  0  0  0
    2.4410    2.1751   -2.2030 H   0  0  0  0  0  0  0  0  0  0  0  0
    3.0661    2.9362   -0.7065 H   0  0  0  0  0  0  0  0  0  0  0  0
    4.3863    1.3139    0.8782 H   0  0  0  0  0  0  0  0  0  0  0  0
    6.2271   -0.3219    0.9159 H   0  0  0  0  0  0  0  0  0  0  0  0
    6.8272   -1.5515   -1.1398 H   0  0  0  0  0  0  0  0  0  0  0  0
    5.5900   -1.1201   -3.2301 H   0  0  0  0  0  0  0  0  0  0  0  0
    3.7557    0.5164   -3.2633 H   0  0  0  0  0  0  0  0  0  0  0  0
   -0.5124    0.4808   -2.6349 H   0  0  0  0  0  0  0  0  0  0  0  0
   -0.5502    3.8012   -3.1552 H   0  0  0  0  0  0  0  0  0  0  0  0
   -2.4482    1.0958    1.6788 H   0  0  0  0  0  0  0  0  0  0  0  0
   -3.7045    0.3674    0.6645 H   0  0  0  0  0  0  0  0  0  0  0  0
   -5.7935    1.4947    0.4497 H   0  0  0  0  0  0  0  0  0  0  0  0
   -7.2068    3.4701    0.8457 H   0  0  0  0  0  0  0  0  0  0  0  0
   -6.2020    5.5619    1.6829 H   0  0  0  0  0  0  0  0  0  0  0  0
   -3.7752    5.6678    2.1196 H   0  0  0  0  0  0  0  0  0  0  0  0
   -2.3652    3.6897    1.7266 H   0  0  0  0  0  0  0  0  0  0  0  0
  1  2  1  0  0  0  0
  2  3  1  0  0  0  0
  2  4  1  0  0  0  0
  2  5  1  0  0  0  0
  1  6  4  0  0  0  0
  6  7  4  0  0  0  0
  7  8  4  0  0  0  0
  8  9  4  0  0  0  0
  1 10  4  0  0  0  0
  9 10  4  0  0  0  0
 10 11  1  0  0  0  0
 11 12  1  0  0  0  0
 12 13  1  0  0  0  0
 13 14  4  0  0  0  0
 14 15  1  0  0  0  0
 15 16  1  0  0  0  0
 15 17  1  0  0  0  0
 15 18  1  0  0  0  0
 14 19  4  0  0  0  0
 19 20  4  0  0  0  0
 20 21  4  0  0  0  0
 13 22  4  0  0  0  0
 21 22  4  0  0  0  0
 12 23  1  0  0  0  0
 23 24  1  0  0  0  0
 24 25  1  0  0  0  0
 25 26  1  0  0  0  0
 26 27  4  0  0  0  0
 27 28  4  0  0  0  0
 28 29  4  0  0  0  0
 29 30  4  0  0  0  0
 26 31  4  0  0  0  0
 30 31  4  0  0  0  0
 24 32  2  0  0  0  0
 23 33  1  0  0  0  0
 33 34  1  0  0  0  0
 34 35  1  0  0  0  0
 34 36  2  0  0  0  0
 11 37  1  0  0  0  0
 33 37  1  0  0  0  0
 37 38  4  0  0  0  0
 38 39  1  0  0  0  0
 39 40  1  0  0  0  0
 40 41  4  0  0  0  0
 41 42  4  0  0  0  0
 42 43  4  0  0  0  0
 43 44  4  0  0  0  0
 40 45  4  0  0  0  0
 44 45  4  0  0  0  0
 38 46  2  0  0  0  0
  6 47  1  0  0  0  0
  7 48  1  0  0  0  0
  8 49  1  0  0  0  0
  9 50  1  0  0  0  0
 11 51  1  0  0  0  0
 12 52  1  0  0  0  0
 19 53  1  0  0  0  0
 20 54  1  0  0  0  0
 21 55  1  0  0  0  0
 22 56  1  0  0  0  0
 25 57  1  0  0  0  0
 25 58  1  0  0  0  0
 27 59  1  0  0  0  0
 28 60  1  0  0  0  0
 29 61  1  0  0  0  0
 30 62  1  0  0  0  0
 31 63  1  0  0  0  0
 33 64  1  0  0  0  0
 35 65  1  0  0  0  0
 39 66  1  0  0  0  0
 39 67  1  0  0  0  0
 41 68  1  0  0  0  0
 42 69  1  0  0  0  0
 43 70  1  0  0  0  0
 44 71  1  0  0  0  0
 45 72  1  0  0  0  0
M  END
