
  xtb     03162223333D
 xtb: 6.3.3 (4ae9cef)
 68 72  0     0  0            999 V2000
   -1.9487   -0.8297    3.0052 O   0  0  0  0  0  0  0  0  0  0  0  0
   -1.7123    0.2994    2.6300 C   0  0  0  0  0  0  0  0  0  0  0  0
   -1.9606    1.5029    3.4758 C   0  0  0  0  0  0  0  0  0  0  0  0
   -1.3274    1.6070    4.7086 C   0  0  0  0  0  0  0  0  0  0  0  0
   -1.5696    2.7002    5.5206 C   0  0  0  0  0  0  0  0  0  0  0  0
   -2.4637    3.6790    5.1190 C   0  0  0  0  0  0  0  0  0  0  0  0
   -3.1211    3.5611    3.9057 C   0  0  0  0  0  0  0  0  0  0  0  0
   -2.8696    2.4782    3.0830 C   0  0  0  0  0  0  0  0  0  0  0  0
   -1.2413    0.5498    1.3761 N   0  0  0  0  0  0  0  0  0  0  0  0
   -0.6588    1.7769    0.9017 C   0  0  0  0  0  0  0  0  0  0  0  0
    0.1864    2.4918    1.9805 C   0  0  0  0  0  0  0  0  0  0  0  0
   -0.2569    3.7176    2.2289 O   0  0  0  0  0  0  0  0  0  0  0  0
    1.0651    1.9439    2.5892 O   0  0  0  0  0  0  0  0  0  0  0  0
    0.2156    1.3594   -0.1778 N   0  0  0  0  0  0  0  0  0  0  0  0
    1.2651    2.1544   -0.4795 C   0  0  0  0  0  0  0  0  0  0  0  0
    2.1626    1.6853   -1.5698 C   0  0  0  0  0  0  0  0  0  0  0  0
    1.6771    1.4520   -2.8503 C   0  0  0  0  0  0  0  0  0  0  0  0
    2.5412    1.0402   -3.8490 C   0  0  0  0  0  0  0  0  0  0  0  0
    3.8842    0.8471   -3.5716 C   0  0  0  0  0  0  0  0  0  0  0  0
    4.3724    1.0983   -2.2999 C   0  0  0  0  0  0  0  0  0  0  0  0
    3.5184    1.5333   -1.3041 C   0  0  0  0  0  0  0  0  0  0  0  0
    1.4282    3.2093    0.1141 O   0  0  0  0  0  0  0  0  0  0  0  0
    0.0534   -0.0402   -0.5379 C   0  0  0  0  0  0  0  0  0  0  0  0
    1.3567   -0.7936   -0.4800 C   0  0  0  0  0  0  0  0  0  0  0  0
    2.1427   -0.7340    0.6593 C   0  0  0  0  0  0  0  0  0  0  0  0
    3.3432   -1.4187    0.7252 C   0  0  0  0  0  0  0  0  0  0  0  0
    3.7550   -2.1743   -0.3558 C   0  0  0  0  0  0  0  0  0  0  0  0
    2.9777   -2.2511   -1.4990 C   0  0  0  0  0  0  0  0  0  0  0  0
    1.7720   -1.5651   -1.5732 C   0  0  0  0  0  0  0  0  0  0  0  0
    0.9476   -1.5754   -2.6605 O   0  0  0  0  0  0  0  0  0  0  0  0
    1.3469   -2.2987   -3.7979 C   0  0  0  0  0  0  0  0  0  0  0  0
   -0.9654   -0.5718    0.4952 C   0  0  0  0  0  0  0  0  0  0  0  0
   -2.2021   -1.1111   -0.1775 C   0  0  0  0  0  0  0  0  0  0  0  0
   -2.1306   -2.3996   -0.7295 C   0  0  0  0  0  0  0  0  0  0  0  0
   -0.9346   -3.0349   -0.5904 O   0  0  0  0  0  0  0  0  0  0  0  0
   -0.7992   -4.3390   -1.0970 C   0  0  0  0  0  0  0  0  0  0  0  0
   -3.2434   -2.9313   -1.3676 C   0  0  0  0  0  0  0  0  0  0  0  0
   -4.4108   -2.1906   -1.4612 C   0  0  0  0  0  0  0  0  0  0  0  0
   -4.4806   -0.9196   -0.9264 C   0  0  0  0  0  0  0  0  0  0  0  0
   -3.3724   -0.3860   -0.2878 C   0  0  0  0  0  0  0  0  0  0  0  0
   -0.6374    0.8348    5.0123 H   0  0  0  0  0  0  0  0  0  0  0  0
   -1.0636    2.7856    6.4709 H   0  0  0  0  0  0  0  0  0  0  0  0
   -2.6549    4.5305    5.7554 H   0  0  0  0  0  0  0  0  0  0  0  0
   -3.8299    4.3157    3.5990 H   0  0  0  0  0  0  0  0  0  0  0  0
   -3.3915    2.3819    2.1420 H   0  0  0  0  0  0  0  0  0  0  0  0
   -1.4126    2.4910    0.5279 H   0  0  0  0  0  0  0  0  0  0  0  0
    0.3249    4.1638    2.8637 H   0  0  0  0  0  0  0  0  0  0  0  0
    0.6303    1.6037   -3.0672 H   0  0  0  0  0  0  0  0  0  0  0  0
    2.1632    0.8668   -4.8461 H   0  0  0  0  0  0  0  0  0  0  0  0
    4.5540    0.5115   -4.3503 H   0  0  0  0  0  0  0  0  0  0  0  0
    5.4216    0.9606   -2.0858 H   0  0  0  0  0  0  0  0  0  0  0  0
    3.8865    1.7419   -0.3115 H   0  0  0  0  0  0  0  0  0  0  0  0
   -0.3642   -0.1215   -1.5471 H   0  0  0  0  0  0  0  0  0  0  0  0
    1.8211   -0.1276    1.4939 H   0  0  0  0  0  0  0  0  0  0  0  0
    3.9503   -1.3604    1.6149 H   0  0  0  0  0  0  0  0  0  0  0  0
    4.6901   -2.7132   -0.3181 H   0  0  0  0  0  0  0  0  0  0  0  0
    3.3246   -2.8467   -2.3284 H   0  0  0  0  0  0  0  0  0  0  0  0
    0.5542   -2.1534   -4.5308 H   0  0  0  0  0  0  0  0  0  0  0  0
    2.2896   -1.9176   -4.2035 H   0  0  0  0  0  0  0  0  0  0  0  0
    1.4473   -3.3675   -3.5828 H   0  0  0  0  0  0  0  0  0  0  0  0
   -0.5269   -1.3833    1.0891 H   0  0  0  0  0  0  0  0  0  0  0  0
    0.2205   -4.6390   -0.8586 H   0  0  0  0  0  0  0  0  0  0  0  0
   -1.5000   -5.0322   -0.6210 H   0  0  0  0  0  0  0  0  0  0  0  0
   -0.9418   -4.3645   -2.1826 H   0  0  0  0  0  0  0  0  0  0  0  0
   -3.2151   -3.9227   -1.7914 H   0  0  0  0  0  0  0  0  0  0  0  0
   -5.2692   -2.6191   -1.9569 H   0  0  0  0  0  0  0  0  0  0  0  0
   -5.3910   -0.3453   -1.0013 H   0  0  0  0  0  0  0  0  0  0  0  0
   -3.4224    0.6041    0.1395 H   0  0  0  0  0  0  0  0  0  0  0  0
  1  2  2  0  0  0  0
  2  3  1  0  0  0  0
  3  4  4  0  0  0  0
  4  5  4  0  0  0  0
  5  6  4  0  0  0  0
  6  7  4  0  0  0  0
  3  8  4  0  0  0  0
  7  8  4  0  0  0  0
  2  9  1  0  0  0  0
  9 10  1  0  0  0  0
 10 11  1  0  0  0  0
 11 12  1  0  0  0  0
 11 13  2  0  0  0  0
 10 14  1  0  0  0  0
 14 15  4  0  0  0  0
 15 16  1  0  0  0  0
 16 17  4  0  0  0  0
 17 18  4  0  0  0  0
 18 19  4  0  0  0  0
 19 20  4  0  0  0  0
 16 21  4  0  0  0  0
 20 21  4  0  0  0  0
 15 22  2  0  0  0  0
 14 23  1  0  0  0  0
 23 24  1  0  0  0  0
 24 25  4  0  0  0  0
 25 26  4  0  0  0  0
 26 27  4  0  0  0  0
 27 28  4  0  0  0  0
 24 29  4  0  0  0  0
 28 29  4  0  0  0  0
 29 30  1  0  0  0  0
 30 31  1  0  0  0  0
  9 32  1  0  0  0  0
 23 32  1  0  0  0  0
 32 33  1  0  0  0  0
 33 34  4  0  0  0  0
 34 35  1  0  0  0  0
 35 36  1  0  0  0  0
 34 37  4  0  0  0  0
 37 38  4  0  0  0  0
 38 39  4  0  0  0  0
 33 40  4  0  0  0  0
 39 40  4  0  0  0  0
  4 41  1  0  0  0  0
  5 42  1  0  0  0  0
  6 43  1  0  0  0  0
  7 44  1  0  0  0  0
  8 45  1  0  0  0  0
 10 46  1  0  0  0  0
 12 47  1  0  0  0  0
 17 48  1  0  0  0  0
 18 49  1  0  0  0  0
 19 50  1  0  0  0  0
 20 51  1  0  0  0  0
 21 52  1  0  0  0  0
 23 53  1  0  0  0  0
 25 54  1  0  0  0  0
 26 55  1  0  0  0  0
 27 56  1  0  0  0  0
 28 57  1  0  0  0  0
 31 58  1  0  0  0  0
 31 59  1  0  0  0  0
 31 60  1  0  0  0  0
 32 61  1  0  0  0  0
 36 62  1  0  0  0  0
 36 63  1  0  0  0  0
 36 64  1  0  0  0  0
 37 65  1  0  0  0  0
 38 66  1  0  0  0  0
 39 67  1  0  0  0  0
 40 68  1  0  0  0  0
M  END
