68

C     -1.635711   -3.373610   -1.032584
O     -1.955011   -3.767555    0.241205
C     -3.356333   -3.945775    0.438414
C     -2.058800   -4.126725   -2.135105
C     -1.664286   -3.770201   -3.421661
C     -0.826301   -2.676783   -3.606455
C     -0.389694   -1.934995   -2.505906
C     -0.789971   -2.260293   -1.196518
C     -0.344771   -1.435162    0.011040
C      1.143499   -0.990568   -0.019735
C      1.812970   -1.247335    1.331242
C      1.438923   -0.532923    2.485381
C      2.038906   -0.795771    3.719276
C      3.012785   -1.784789    3.825020
C      3.392864   -2.507857    2.696611
C      2.808224   -2.229466    1.457756
O      3.154328   -2.972363    0.358103
C      4.508786   -2.723398   -0.022733
N      1.103893    0.443814   -0.350239
C      2.277372    1.150336   -0.555127
C      2.219808    2.626616   -0.639205
C      2.629408    3.343394   -1.771756
I      3.356458    2.449676   -3.526208
C      2.564395    4.743420   -1.761731
C      2.123460    5.423437   -0.624218
C      1.760769    4.713584    0.517338
C      1.820321    3.320337    0.515476
O      3.383212    0.620310   -0.615933
C     -0.268025    0.952040   -0.363258
C     -0.782813    1.458758   -1.742900
O      0.098896    1.352376   -2.755991
O     -1.886698    1.928819   -1.974918
N     -1.087025   -0.163007    0.104436
C     -2.280610   -0.090834    0.798534
C     -2.968645    1.206198    0.920365
C     -2.494915    2.105740    1.887674
C     -3.132356    3.332224    2.071550
C     -4.253886    3.652644    1.308014
C     -4.751340    2.742701    0.370920
C     -4.119369    1.508400    0.181388
I     -4.969061    0.193294   -1.216135
O     -2.802254   -1.039497    1.376542
H     -3.949218   -3.188263   -0.086800
H     -3.658987   -4.950114    0.126878
H     -3.559187   -3.852687    1.509623
H     -2.676374   -5.009210   -1.998267
H     -1.993182   -4.357612   -4.274238
H     -0.498335   -2.406697   -4.606985
H      0.291044   -1.110129   -2.693438
H     -0.536047   -2.016582    0.920307
H      1.713161   -1.487091   -0.811966
H      0.665212    0.226830    2.437330
H      1.735479   -0.238784    4.601573
H      3.467788   -2.002228    4.787418
H      4.131462   -3.298470    2.788863
H      4.768097   -1.660342    0.037043
H      5.192544   -3.316438    0.592868
H      4.626684   -3.042038   -1.063086
H      2.866851    5.322783   -2.632103
H      2.085518    6.510700   -0.624849
H      1.450091    5.246606    1.413017
H      1.579773    2.776617    1.426355
H     -0.334979    1.790516    0.329984
H     -0.393654    1.673350   -3.540768
H     -1.643942    1.843199    2.511427
H     -2.767142    4.031808    2.819741
H     -4.755926    4.606931    1.452570
H     -5.638135    3.008135   -0.200470
