80

C      1.634860   -3.954569    1.268292
O      2.274650   -4.424894    0.151147
C      3.675415   -4.588966    0.369528
C      1.616700   -4.708401    2.445700
C      0.910192   -4.250069    3.557697
C      0.208053   -3.049124    3.489810
C      0.217000   -2.301018    2.311887
C      0.931939   -2.742265    1.179403
C      0.936452   -1.934742   -0.118784
C     -0.467818   -1.923451   -0.774342
C     -0.469862   -2.405043   -2.221792
C      0.372971   -1.831209   -3.189423
C      0.365970   -2.276046   -4.513237
C     -0.475021   -3.315152   -4.895757
C     -1.309448   -3.911889   -3.953796
C     -1.318598   -3.452681   -2.630746
O     -2.098273   -4.067016   -1.681759
C     -3.467745   -4.166103   -2.070834
N     -0.946471   -0.536782   -0.613245
C     -2.307132   -0.264444   -0.689142
C     -2.815278    1.056480   -0.340065
C     -3.967449    1.703141   -0.780540
C     -4.921025    1.202243   -1.805453
C     -4.059507    2.917923   -0.039431
C     -4.957081    4.000525    0.011554
C     -4.713187    5.039492    0.919459
C     -3.606818    5.004963    1.770008
C     -2.706355    3.935663    1.740155
C     -2.969326    2.926165    0.817355
O     -2.200024    1.819327    0.617385
O     -3.095876   -1.137637   -1.048191
C      0.115272    0.344020   -0.137365
C      0.462609    1.403800   -1.235823
O     -0.088384    2.626210   -1.026892
O      1.141292    1.187643   -2.232478
N      1.256211   -0.523996    0.124673
C      2.524167   -0.149740    0.545762
C      2.773856    1.235629    0.921558
C      3.968525    1.949865    0.948068
C      5.308863    1.443552    0.555149
C      3.645158    3.258448    1.416900
C      2.281432    3.245885    1.671409
C      1.566976    4.337702    2.160650
C      2.292859    5.511533    2.389207
C      3.664687    5.568816    2.139693
C      4.357797    4.448885    1.657136
O      1.753381    2.027145    1.377517
O      3.433300   -0.982364    0.575493
H      4.105298   -3.763746    0.946050
H      3.875615   -5.545800    0.862327
H      4.165087   -4.605886   -0.609991
H      2.134215   -5.663057    2.498167
H      0.895696   -4.838055    4.471420
H     -0.354377   -2.700775    4.351963
H     -0.353388   -1.374939    2.279601
H      1.704441   -2.322653   -0.796877
H     -1.152134   -2.553115   -0.193570
H      1.064078   -1.036713   -2.928104
H      1.028177   -1.812391   -5.240666
H     -0.472642   -3.668083   -5.923005
H     -1.934831   -4.746251   -4.257127
H     -4.070455   -4.276714   -1.161046
H     -3.623122   -5.059358   -2.686109
H     -3.814734   -3.268958   -2.599752
H     -4.385385    0.836954   -2.688191
H     -5.521739    0.380854   -1.399271
H     -5.604021    1.991687   -2.137606
H     -5.826409    4.036069   -0.638336
H     -5.402437    5.880666    0.964015
H     -3.446363    5.821135    2.470330
H     -1.855712    3.892275    2.406903
H     -0.168132    0.807613    0.807654
H     -0.613332    2.681308   -0.202287
H      5.259074    0.916899   -0.402531
H      6.029680    2.260813    0.446004
H      5.689461    0.754941    1.315088
H      0.505415    4.279848    2.353508
H      1.779584    6.393907    2.765575
H      4.207484    6.495979    2.320014
H      5.425998    4.508089    1.472351
