
  xtb     03162221293D
 xtb: 6.3.3 (4ae9cef)
 80 86  0     0  0            999 V2000
    1.3281   -3.9849    0.7806 C   0  0  0  0  0  0  0  0  0  0  0  0
    1.6063   -4.2034   -0.5338 O   0  0  0  0  0  0  0  0  0  0  0  0
    1.9346   -5.5049   -0.9480 C   0  0  0  0  0  0  0  0  0  0  0  0
    1.3376   -4.9638    1.7659 C   0  0  0  0  0  0  0  0  0  0  0  0
    1.0227   -4.6368    3.0749 C   0  0  0  0  0  0  0  0  0  0  0  0
    0.6915   -3.3399    3.4145 C   0  0  0  0  0  0  0  0  0  0  0  0
    0.6808   -2.3605    2.4349 C   0  0  0  0  0  0  0  0  0  0  0  0
    1.0050   -2.6646    1.1267 C   0  0  0  0  0  0  0  0  0  0  0  0
    0.9697   -1.6340    0.0292 C   0  0  0  0  0  0  0  0  0  0  0  0
   -0.4094   -1.6085   -0.6511 C   0  0  0  0  0  0  0  0  0  0  0  0
   -0.3757   -2.1033   -2.0730 C   0  0  0  0  0  0  0  0  0  0  0  0
    0.1978   -1.3594   -3.0883 C   0  0  0  0  0  0  0  0  0  0  0  0
    0.2218   -1.8316   -4.3902 C   0  0  0  0  0  0  0  0  0  0  0  0
   -0.3311   -3.0637   -4.6762 C   0  0  0  0  0  0  0  0  0  0  0  0
   -0.8973   -3.8295   -3.6706 C   0  0  0  0  0  0  0  0  0  0  0  0
   -0.9217   -3.3632   -2.3620 C   0  0  0  0  0  0  0  0  0  0  0  0
   -1.4343   -4.0620   -1.3109 O   0  0  0  0  0  0  0  0  0  0  0  0
   -2.0804   -5.2835   -1.5646 C   0  0  0  0  0  0  0  0  0  0  0  0
   -0.8637   -0.2253   -0.5137 N   0  0  0  0  0  0  0  0  0  0  0  0
   -2.1838    0.0056   -0.7443 C   0  0  0  0  0  0  0  0  0  0  0  0
   -2.7983    1.2965   -0.3863 C   0  0  0  0  0  0  0  0  0  0  0  0
   -4.1002    1.6757   -0.5819 C   0  0  0  0  0  0  0  0  0  0  0  0
   -5.1954    0.9447   -1.2630 C   0  0  0  0  0  0  0  0  0  0  0  0
   -4.2304    2.9753    0.0125 C   0  0  0  0  0  0  0  0  0  0  0  0
   -5.2779    3.8836    0.1542 C   0  0  0  0  0  0  0  0  0  0  0  0
   -5.0263    5.0663    0.8144 C   0  0  0  0  0  0  0  0  0  0  0  0
   -3.7634    5.3576    1.3337 C   0  0  0  0  0  0  0  0  0  0  0  0
   -2.7095    4.4742    1.2059 C   0  0  0  0  0  0  0  0  0  0  0  0
   -2.9679    3.2890    0.5392 C   0  0  0  0  0  0  0  0  0  0  0  0
   -2.0931    2.2771    0.2943 O   0  0  0  0  0  0  0  0  0  0  0  0
   -2.8756   -0.8789   -1.2255 O   0  0  0  0  0  0  0  0  0  0  0  0
    0.1596    0.6266    0.0458 C   0  0  0  0  0  0  0  0  0  0  0  0
    0.7705    1.5590   -1.0522 C   0  0  0  0  0  0  0  0  0  0  0  0
    0.0823    2.6601   -1.3187 O   0  0  0  0  0  0  0  0  0  0  0  0
    1.7774    1.2726   -1.6303 O   0  0  0  0  0  0  0  0  0  0  0  0
    1.1694   -0.2797    0.5211 N   0  0  0  0  0  0  0  0  0  0  0  0
    2.4174    0.0487    0.9671 C   0  0  0  0  0  0  0  0  0  0  0  0
    2.7036    1.4607    1.2555 C   0  0  0  0  0  0  0  0  0  0  0  0
    3.9117    2.0205    1.5802 C   0  0  0  0  0  0  0  0  0  0  0  0
    5.2170    1.3500    1.7949 C   0  0  0  0  0  0  0  0  0  0  0  0
    3.6770    3.4312    1.6703 C   0  0  0  0  0  0  0  0  0  0  0  0
    2.3117    3.6114    1.3842 C   0  0  0  0  0  0  0  0  0  0  0  0
    1.7189    4.8635    1.3639 C   0  0  0  0  0  0  0  0  0  0  0  0
    2.5295    5.9450    1.6442 C   0  0  0  0  0  0  0  0  0  0  0  0
    3.8858    5.7845    1.9358 C   0  0  0  0  0  0  0  0  0  0  0  0
    4.4744    4.5393    1.9513 C   0  0  0  0  0  0  0  0  0  0  0  0
    1.7200    2.4192    1.1439 O   0  0  0  0  0  0  0  0  0  0  0  0
    3.2561   -0.8185    1.1415 O   0  0  0  0  0  0  0  0  0  0  0  0
    2.8501   -5.8637   -0.4665 H   0  0  0  0  0  0  0  0  0  0  0  0
    1.1191   -6.2080   -0.7478 H   0  0  0  0  0  0  0  0  0  0  0  0
    2.0961   -5.4363   -2.0232 H   0  0  0  0  0  0  0  0  0  0  0  0
    1.5908   -5.9847    1.5266 H   0  0  0  0  0  0  0  0  0  0  0  0
    1.0367   -5.4088    3.8302 H   0  0  0  0  0  0  0  0  0  0  0  0
    0.4439   -3.0889    4.4347 H   0  0  0  0  0  0  0  0  0  0  0  0
    0.4273   -1.3426    2.6932 H   0  0  0  0  0  0  0  0  0  0  0  0
    1.7572   -1.8742   -0.6956 H   0  0  0  0  0  0  0  0  0  0  0  0
   -1.1193   -2.2410   -0.1049 H   0  0  0  0  0  0  0  0  0  0  0  0
    0.6411   -0.4022   -2.8645 H   0  0  0  0  0  0  0  0  0  0  0  0
    0.6714   -1.2375   -5.1707 H   0  0  0  0  0  0  0  0  0  0  0  0
   -0.3227   -3.4431   -5.6876 H   0  0  0  0  0  0  0  0  0  0  0  0
   -1.3180   -4.7909   -3.9207 H   0  0  0  0  0  0  0  0  0  0  0  0
   -2.4348   -5.6341   -0.5959 H   0  0  0  0  0  0  0  0  0  0  0  0
   -1.3937   -6.0254   -1.9870 H   0  0  0  0  0  0  0  0  0  0  0  0
   -2.9348   -5.1547   -2.2365 H   0  0  0  0  0  0  0  0  0  0  0  0
   -4.8523   -0.0352   -1.5773 H   0  0  0  0  0  0  0  0  0  0  0  0
   -6.0428    0.8360   -0.5872 H   0  0  0  0  0  0  0  0  0  0  0  0
   -5.5290    1.5108   -2.1323 H   0  0  0  0  0  0  0  0  0  0  0  0
   -6.2556    3.6597   -0.2425 H   0  0  0  0  0  0  0  0  0  0  0  0
   -5.8201    5.7872    0.9387 H   0  0  0  0  0  0  0  0  0  0  0  0
   -3.6081    6.2936    1.8477 H   0  0  0  0  0  0  0  0  0  0  0  0
   -1.7339    4.6878    1.6125 H   0  0  0  0  0  0  0  0  0  0  0  0
   -0.2387    1.2342    0.8708 H   0  0  0  0  0  0  0  0  0  0  0  0
   -0.6983    2.7533   -0.7397 H   0  0  0  0  0  0  0  0  0  0  0  0
    5.1180    0.2828    1.6269 H   0  0  0  0  0  0  0  0  0  0  0  0
    5.9590    1.7617    1.1118 H   0  0  0  0  0  0  0  0  0  0  0  0
    5.5618    1.5263    2.8134 H   0  0  0  0  0  0  0  0  0  0  0  0
    0.6744    4.9833    1.1240 H   0  0  0  0  0  0  0  0  0  0  0  0
    2.1076    6.9387    1.6341 H   0  0  0  0  0  0  0  0  0  0  0  0
    4.4810    6.6600    2.1480 H   0  0  0  0  0  0  0  0  0  0  0  0
    5.5237    4.4179    2.1710 H   0  0  0  0  0  0  0  0  0  0  0  0
  1  2  1  0  0  0  0
  2  3  1  0  0  0  0
  1  4  4  0  0  0  0
  4  5  4  0  0  0  0
  5  6  4  0  0  0  0
  6  7  4  0  0  0  0
  1  8  4  0  0  0  0
  7  8  4  0  0  0  0
  8  9  1  0  0  0  0
  9 10  1  0  0  0  0
 10 11  1  0  0  0  0
 11 12  4  0  0  0  0
 12 13  4  0  0  0  0
 13 14  4  0  0  0  0
 14 15  4  0  0  0  0
 11 16  4  0  0  0  0
 15 16  4  0  0  0  0
 16 17  1  0  0  0  0
 17 18  1  0  0  0  0
 10 19  1  0  0  0  0
 19 20  4  0  0  0  0
 20 21  1  0  0  0  0
 21 22  2  0  0  0  0
 22 23  1  0  0  0  0
 22 24  1  0  0  0  0
 24 25  4  0  0  0  0
 25 26  4  0  0  0  0
 26 27  4  0  0  0  0
 27 28  4  0  0  0  0
 24 29  4  0  0  0  0
 28 29  4  0  0  0  0
 21 30  1  0  0  0  0
 29 30  1  0  0  0  0
 20 31  2  0  0  0  0
 19 32  1  0  0  0  0
 32 33  1  0  0  0  0
 33 34  1  0  0  0  0
 33 35  2  0  0  0  0
  9 36  1  0  0  0  0
 32 36  1  0  0  0  0
 36 37  1  0  0  0  0
 37 38  1  0  0  0  0
 38 39  2  0  0  0  0
 39 40  1  0  0  0  0
 39 41  1  0  0  0  0
 41 42  4  0  0  0  0
 42 43  4  0  0  0  0
 43 44  4  0  0  0  0
 44 45  4  0  0  0  0
 41 46  4  0  0  0  0
 45 46  2  0  0  0  0
 38 47  1  0  0  0  0
 42 47  1  0  0  0  0
 37 48  2  0  0  0  0
  3 49  1  0  0  0  0
  3 50  1  0  0  0  0
  3 51  1  0  0  0  0
  4 52  1  0  0  0  0
  5 53  1  0  0  0  0
  6 54  1  0  0  0  0
  7 55  1  0  0  0  0
  9 56  1  0  0  0  0
 10 57  1  0  0  0  0
 12 58  1  0  0  0  0
 13 59  1  0  0  0  0
 14 60  1  0  0  0  0
 15 61  1  0  0  0  0
 18 62  1  0  0  0  0
 18 63  1  0  0  0  0
 18 64  1  0  0  0  0
 23 65  1  0  0  0  0
 23 66  1  0  0  0  0
 23 67  1  0  0  0  0
 25 68  1  0  0  0  0
 26 69  1  0  0  0  0
 27 70  1  0  0  0  0
 28 71  1  0  0  0  0
 32 72  1  0  0  0  0
 34 73  1  0  0  0  0
 40 74  1  0  0  0  0
 40 75  1  0  0  0  0
 40 76  1  0  0  0  0
 43 77  1  0  0  0  0
 44 78  1  0  0  0  0
 45 79  1  0  0  0  0
 46 80  1  0  0  0  0
M  END
