
  xtb     03172201563D
 xtb: 6.3.3 (4ae9cef)
 76 84  0     0  0            999 V2000
   -2.8917   -0.4411    2.5819 C   0  0  0  0  0  0  0  0  0  0  0  0
   -3.5483   -1.5015    3.1379 C   0  0  0  0  0  0  0  0  0  0  0  0
   -2.9422   -2.7726    3.2123 C   0  0  0  0  0  0  0  0  0  0  0  0
   -3.5934   -3.8904    3.7735 C   0  0  0  0  0  0  0  0  0  0  0  0
   -2.9707   -5.1061    3.8249 C   0  0  0  0  0  0  0  0  0  0  0  0
   -1.6691   -5.2601    3.3210 C   0  0  0  0  0  0  0  0  0  0  0  0
   -1.0109   -4.1963    2.7715 C   0  0  0  0  0  0  0  0  0  0  0  0
   -1.6280   -2.9298    2.7012 C   0  0  0  0  0  0  0  0  0  0  0  0
   -0.9780   -1.8176    2.1306 C   0  0  0  0  0  0  0  0  0  0  0  0
   -1.5894   -0.5919    2.0668 C   0  0  0  0  0  0  0  0  0  0  0  0
   -0.9293    0.5930    1.3983 C   0  0  0  0  0  0  0  0  0  0  0  0
    0.5980    0.6772    1.6084 C   0  0  0  0  0  0  0  0  0  0  0  0
    1.1032    2.0902    1.7860 C   0  0  0  0  0  0  0  0  0  0  0  0
    2.1596    2.5729    1.0608 C   0  0  0  0  0  0  0  0  0  0  0  0
    2.6059    3.9017    1.2159 C   0  0  0  0  0  0  0  0  0  0  0  0
    3.6704    4.4226    0.4513 C   0  0  0  0  0  0  0  0  0  0  0  0
    4.0754    5.7179    0.6150 C   0  0  0  0  0  0  0  0  0  0  0  0
    3.4371    6.5488    1.5494 C   0  0  0  0  0  0  0  0  0  0  0  0
    2.4033    6.0716    2.3061 C   0  0  0  0  0  0  0  0  0  0  0  0
    1.9610    4.7409    2.1604 C   0  0  0  0  0  0  0  0  0  0  0  0
    0.9068    4.2048    2.9295 C   0  0  0  0  0  0  0  0  0  0  0  0
    0.4904    2.9177    2.7491 C   0  0  0  0  0  0  0  0  0  0  0  0
    1.1089    0.0353    0.4058 N   0  0  0  0  0  0  0  0  0  0  0  0
    2.0660   -0.9326    0.4421 C   0  0  0  0  0  0  0  0  0  0  0  0
    2.1731   -1.7705   -0.7974 C   0  0  0  0  0  0  0  0  0  0  0  0
    3.3112   -1.7504   -1.5946 C   0  0  0  0  0  0  0  0  0  0  0  0
    3.4037   -2.5788   -2.7031 C   0  0  0  0  0  0  0  0  0  0  0  0
    2.3684   -3.4379   -3.0253 C   0  0  0  0  0  0  0  0  0  0  0  0
    1.2377   -3.4560   -2.2213 C   0  0  0  0  0  0  0  0  0  0  0  0
    0.1288   -4.3223   -2.5479 N   0  0  0  0  0  0  0  0  0  0  0  0
    0.3378   -5.2490   -3.2918 O   0  0  0  0  0  0  0  0  0  0  0  0
   -0.9378   -4.0657   -2.0294 O   0  0  0  0  0  0  0  0  0  0  0  0
    1.1326   -2.6377   -1.1074 C   0  0  0  0  0  0  0  0  0  0  0  0
    2.7487   -1.1206    1.4236 O   0  0  0  0  0  0  0  0  0  0  0  0
    0.2272    0.3387   -0.6885 C   0  0  0  0  0  0  0  0  0  0  0  0
    0.6879    1.6376   -1.3910 C   0  0  0  0  0  0  0  0  0  0  0  0
   -0.0735    2.6844   -1.1024 O   0  0  0  0  0  0  0  0  0  0  0  0
    1.6319    1.6693   -2.1297 O   0  0  0  0  0  0  0  0  0  0  0  0
   -1.0629    0.4662   -0.0588 N   0  0  0  0  0  0  0  0  0  0  0  0
   -2.2330    0.7660   -0.6758 C   0  0  0  0  0  0  0  0  0  0  0  0
   -2.2099    0.6522   -2.1720 C   0  0  0  0  0  0  0  0  0  0  0  0
   -1.7796   -0.4951   -2.8228 C   0  0  0  0  0  0  0  0  0  0  0  0
   -1.7543   -0.5107   -4.2107 C   0  0  0  0  0  0  0  0  0  0  0  0
   -1.1875   -1.6509   -4.8856 N   0  0  0  0  0  0  0  0  0  0  0  0
   -0.4245   -2.3430   -4.2403 O   0  0  0  0  0  0  0  0  0  0  0  0
   -1.4705   -1.8246   -6.0465 O   0  0  0  0  0  0  0  0  0  0  0  0
   -2.2068    0.5665   -4.9619 C   0  0  0  0  0  0  0  0  0  0  0  0
   -2.6806    1.6866   -4.3039 C   0  0  0  0  0  0  0  0  0  0  0  0
   -2.6728    1.7325   -2.9192 C   0  0  0  0  0  0  0  0  0  0  0  0
   -3.2225    1.1119   -0.0690 O   0  0  0  0  0  0  0  0  0  0  0  0
   -3.3717    0.5227    2.5116 H   0  0  0  0  0  0  0  0  0  0  0  0
   -4.5489   -1.3796    3.5265 H   0  0  0  0  0  0  0  0  0  0  0  0
   -4.5950   -3.7674    4.1599 H   0  0  0  0  0  0  0  0  0  0  0  0
   -3.4754   -5.9592    4.2540 H   0  0  0  0  0  0  0  0  0  0  0  0
   -1.1934   -6.2284    3.3711 H   0  0  0  0  0  0  0  0  0  0  0  0
   -0.0078   -4.3089    2.3845 H   0  0  0  0  0  0  0  0  0  0  0  0
    0.0257   -1.9633    1.7580 H   0  0  0  0  0  0  0  0  0  0  0  0
   -1.4383    1.5126    1.7041 H   0  0  0  0  0  0  0  0  0  0  0  0
    0.9164    0.0819    2.4718 H   0  0  0  0  0  0  0  0  0  0  0  0
    2.6804    1.9404    0.3564 H   0  0  0  0  0  0  0  0  0  0  0  0
    4.1559    3.7781   -0.2675 H   0  0  0  0  0  0  0  0  0  0  0  0
    4.8911    6.1119    0.0269 H   0  0  0  0  0  0  0  0  0  0  0  0
    3.7720    7.5689    1.6656 H   0  0  0  0  0  0  0  0  0  0  0  0
    1.9098    6.7066    3.0277 H   0  0  0  0  0  0  0  0  0  0  0  0
    0.4333    4.8324    3.6705 H   0  0  0  0  0  0  0  0  0  0  0  0
   -0.3064    2.5167    3.3581 H   0  0  0  0  0  0  0  0  0  0  0  0
    4.1196   -1.0814   -1.3441 H   0  0  0  0  0  0  0  0  0  0  0  0
    4.2884   -2.5497   -3.3198 H   0  0  0  0  0  0  0  0  0  0  0  0
    2.4096   -4.0833   -3.8885 H   0  0  0  0  0  0  0  0  0  0  0  0
    0.2451   -2.7024   -0.4923 H   0  0  0  0  0  0  0  0  0  0  0  0
    0.2712   -0.4487   -1.4483 H   0  0  0  0  0  0  0  0  0  0  0  0
    0.2644    3.4918   -1.5238 H   0  0  0  0  0  0  0  0  0  0  0  0
   -1.5013   -1.3893   -2.2837 H   0  0  0  0  0  0  0  0  0  0  0  0
   -2.1745    0.5098   -6.0393 H   0  0  0  0  0  0  0  0  0  0  0  0
   -3.0471    2.5284   -4.8703 H   0  0  0  0  0  0  0  0  0  0  0  0
   -3.0309    2.6061   -2.3959 H   0  0  0  0  0  0  0  0  0  0  0  0
  1  2  2  0  0  0  0
  2  3  4  0  0  0  0
  3  4  4  0  0  0  0
  4  5  2  0  0  0  0
  5  6  4  0  0  0  0
  6  7  2  0  0  0  0
  3  8  4  0  0  0  0
  7  8  4  0  0  0  0
  8  9  4  0  0  0  0
  1 10  4  0  0  0  0
  9 10  2  0  0  0  0
 10 11  1  0  0  0  0
 11 12  1  0  0  0  0
 12 13  1  0  0  0  0
 13 14  2  0  0  0  0
 14 15  4  0  0  0  0
 15 16  4  0  0  0  0
 16 17  2  0  0  0  0
 17 18  4  0  0  0  0
 18 19  2  0  0  0  0
 15 20  4  0  0  0  0
 19 20  4  0  0  0  0
 20 21  4  0  0  0  0
 13 22  4  0  0  0  0
 21 22  2  0  0  0  0
 12 23  1  0  0  0  0
 23 24  1  0  0  0  0
 24 25  1  0  0  0  0
 25 26  4  0  0  0  0
 26 27  4  0  0  0  0
 27 28  4  0  0  0  0
 28 29  4  0  0  0  0
 29 30  1  0  0  0  0
 30 31  4  0  0  0  0
 30 32  4  0  0  0  0
 31 32  1  0  0  0  0
 25 33  4  0  0  0  0
 29 33  4  0  0  0  0
 24 34  2  0  0  0  0
 23 35  1  0  0  0  0
 35 36  1  0  0  0  0
 36 37  1  0  0  0  0
 36 38  2  0  0  0  0
 11 39  1  0  0  0  0
 35 39  1  0  0  0  0
 39 40  4  0  0  0  0
 40 41  1  0  0  0  0
 41 42  4  0  0  0  0
 42 43  4  0  0  0  0
 43 44  1  0  0  0  0
 44 45  4  0  0  0  0
 44 46  4  0  0  0  0
 45 46  1  0  0  0  0
 43 47  4  0  0  0  0
 47 48  4  0  0  0  0
 41 49  4  0  0  0  0
 48 49  4  0  0  0  0
 40 50  2  0  0  0  0
  1 51  1  0  0  0  0
  2 52  1  0  0  0  0
  4 53  1  0  0  0  0
  5 54  1  0  0  0  0
  6 55  1  0  0  0  0
  7 56  1  0  0  0  0
  9 57  1  0  0  0  0
 11 58  1  0  0  0  0
 12 59  1  0  0  0  0
 14 60  1  0  0  0  0
 16 61  1  0  0  0  0
 17 62  1  0  0  0  0
 18 63  1  0  0  0  0
 19 64  1  0  0  0  0
 21 65  1  0  0  0  0
 22 66  1  0  0  0  0
 26 67  1  0  0  0  0
 27 68  1  0  0  0  0
 28 69  1  0  0  0  0
 33 70  1  0  0  0  0
 35 71  1  0  0  0  0
 37 72  1  0  0  0  0
 42 73  1  0  0  0  0
 47 74  1  0  0  0  0
 48 75  1  0  0  0  0
 49 76  1  0  0  0  0
M  END
