66

C      0.495651    1.212952   -2.796043
C      0.893445    1.717429   -4.037884
C      1.805562    2.765653   -4.109781
C      2.326243    3.306142   -2.939096
C      1.927240    2.801276   -1.699586
C      0.996448    1.750215   -1.603068
C      0.605205    1.238855   -0.222472
C     -0.875006    0.781920   -0.048695
C     -1.519479    1.508607    1.126454
C     -2.527756    2.455778    0.885609
C     -3.125773    3.141899    1.943752
C     -2.718973    2.898175    3.253462
C     -1.712243    1.969948    3.508030
C     -1.113819    1.280208    2.452632
N     -0.796221   -0.673445    0.164438
C     -1.804501   -1.591584    0.347785
C     -3.209866   -1.151294    0.272903
C     -3.907110   -1.127234   -0.943750
C     -3.246673   -1.526617   -2.234917
F     -2.618670   -2.728114   -2.181289
F     -2.322169   -0.613987   -2.634632
F     -4.128155   -1.623015   -3.272626
C     -5.251776   -0.713460   -0.932654
C     -5.885816   -0.368817    0.263388
C     -5.191616   -0.441909    1.468189
C     -3.857639   -0.844362    1.476804
O     -1.589619   -2.776170    0.585772
C      0.582695   -1.138726    0.188520
C      0.871525   -2.019930   -1.057602
O      1.824164   -2.955274   -0.837123
O      0.381770   -1.915224   -2.172441
N      1.393401    0.071360    0.183829
C      2.661804    0.219172    0.700148
C      3.374411   -0.967593    1.204980
C      3.051764   -1.441239    2.484069
C      3.739530   -2.531664    3.012319
C      4.759868   -3.131545    2.276803
C      5.100183   -2.638638    1.014330
C      4.412799   -1.544900    0.459652
C      4.794806   -1.006265   -0.893651
F      5.483390    0.162837   -0.832292
F      5.600004   -1.865117   -1.587940
F      3.725705   -0.793333   -1.707362
O      3.249841    1.290873    0.797365
H     -0.203313    0.382418   -2.791782
H      0.495414    1.278761   -4.949568
H      2.119793    3.150691   -5.075723
H      3.052637    4.113151   -2.985870
H      2.366935    3.228275   -0.798508
H      0.825173    2.051320    0.484248
H     -1.483011    0.956413   -0.941543
H     -2.860015    2.666205   -0.129329
H     -3.907986    3.870322    1.744877
H     -3.182592    3.437143    4.075778
H     -1.389422    1.786690    4.529881
H     -0.326979    0.563555    2.675472
H     -5.820534   -0.669284   -1.861395
H     -6.927817   -0.056135    0.255900
H     -5.687958   -0.187079    2.401504
H     -3.321698   -0.908546    2.421090
H      0.736366   -1.734876    1.092500
H      1.882598   -3.414802   -1.702586
H      2.276924   -0.956747    3.073071
H      3.489134   -2.907914    4.001506
H      5.300692   -3.979759    2.691470
H      5.911084   -3.113642    0.462678
