
  xtb     03172200043D
 xtb: 6.3.3 (4ae9cef)
 66 70  0     0  0            999 V2000
    0.6578    1.1793   -2.7805 C   0  0  0  0  0  0  0  0  0  0  0  0
    1.1468    1.6659   -3.9808 C   0  0  0  0  0  0  0  0  0  0  0  0
    2.0357    2.7258   -3.9980 C   0  0  0  0  0  0  0  0  0  0  0  0
    2.4371    3.3020   -2.8051 C   0  0  0  0  0  0  0  0  0  0  0  0
    1.9469    2.8223   -1.6046 C   0  0  0  0  0  0  0  0  0  0  0  0
    1.0529    1.7576   -1.5815 C   0  0  0  0  0  0  0  0  0  0  0  0
    0.5928    1.2445   -0.2349 C   0  0  0  0  0  0  0  0  0  0  0  0
   -0.8582    0.7171   -0.1684 C   0  0  0  0  0  0  0  0  0  0  0  0
   -1.6447    1.4147    0.9133 C   0  0  0  0  0  0  0  0  0  0  0  0
   -2.7342    2.2107    0.5903 C   0  0  0  0  0  0  0  0  0  0  0  0
   -3.4528    2.8478    1.5865 C   0  0  0  0  0  0  0  0  0  0  0  0
   -3.0851    2.6980    2.9124 C   0  0  0  0  0  0  0  0  0  0  0  0
   -1.9901    1.9159    3.2404 C   0  0  0  0  0  0  0  0  0  0  0  0
   -1.2721    1.2788    2.2456 C   0  0  0  0  0  0  0  0  0  0  0  0
   -0.7058   -0.7053    0.1133 N   0  0  0  0  0  0  0  0  0  0  0  0
   -1.6591   -1.6138    0.4252 C   0  0  0  0  0  0  0  0  0  0  0  0
   -3.0714   -1.1031    0.4435 C   0  0  0  0  0  0  0  0  0  0  0  0
   -3.8562   -0.9918   -0.7021 C   0  0  0  0  0  0  0  0  0  0  0  0
   -3.3182   -1.3857   -2.0526 C   0  0  0  0  0  0  0  0  0  0  0  0
   -2.5268   -2.4579   -2.0210 F   0  0  0  0  0  0  0  0  0  0  0  0
   -2.6037   -0.3900   -2.6223 F   0  0  0  0  0  0  0  0  0  0  0  0
   -4.3009   -1.6637   -2.9258 F   0  0  0  0  0  0  0  0  0  0  0  0
   -5.1601   -0.5179   -0.6153 C   0  0  0  0  0  0  0  0  0  0  0  0
   -5.6928   -0.1773    0.6139 C   0  0  0  0  0  0  0  0  0  0  0  0
   -4.9367   -0.3380    1.7628 C   0  0  0  0  0  0  0  0  0  0  0  0
   -3.6390   -0.8057    1.6773 C   0  0  0  0  0  0  0  0  0  0  0  0
   -1.3777   -2.7529    0.7353 O   0  0  0  0  0  0  0  0  0  0  0  0
    0.6760   -1.1245    0.0977 C   0  0  0  0  0  0  0  0  0  0  0  0
    0.9787   -1.9005   -1.2058 C   0  0  0  0  0  0  0  0  0  0  0  0
    2.0534   -2.6688   -1.0617 O   0  0  0  0  0  0  0  0  0  0  0  0
    0.3268   -1.8274   -2.2031 O   0  0  0  0  0  0  0  0  0  0  0  0
    1.4029    0.1087    0.2054 N   0  0  0  0  0  0  0  0  0  0  0  0
    2.6075    0.3015    0.7898 C   0  0  0  0  0  0  0  0  0  0  0  0
    3.3105   -0.9494    1.2367 C   0  0  0  0  0  0  0  0  0  0  0  0
    3.0639   -1.4385    2.5145 C   0  0  0  0  0  0  0  0  0  0  0  0
    3.7474   -2.5426    2.9905 C   0  0  0  0  0  0  0  0  0  0  0  0
    4.6946   -3.1680    2.1968 C   0  0  0  0  0  0  0  0  0  0  0  0
    4.9568   -2.6875    0.9276 C   0  0  0  0  0  0  0  0  0  0  0  0
    4.2652   -1.5820    0.4468 C   0  0  0  0  0  0  0  0  0  0  0  0
    4.6079   -1.0915   -0.9330 C   0  0  0  0  0  0  0  0  0  0  0  0
    5.7510   -0.3865   -0.9502 F   0  0  0  0  0  0  0  0  0  0  0  0
    4.7985   -2.1188   -1.7888 F   0  0  0  0  0  0  0  0  0  0  0  0
    3.6729   -0.3202   -1.5009 F   0  0  0  0  0  0  0  0  0  0  0  0
    3.0793    1.4011    0.9770 O   0  0  0  0  0  0  0  0  0  0  0  0
   -0.0190    0.3405   -2.7975 H   0  0  0  0  0  0  0  0  0  0  0  0
    0.8320    1.2062   -4.9056 H   0  0  0  0  0  0  0  0  0  0  0  0
    2.4183    3.0984   -4.9369 H   0  0  0  0  0  0  0  0  0  0  0  0
    3.1359    4.1252   -2.8076 H   0  0  0  0  0  0  0  0  0  0  0  0
    2.2737    3.2623   -0.6747 H   0  0  0  0  0  0  0  0  0  0  0  0
    0.7451    2.0453    0.4999 H   0  0  0  0  0  0  0  0  0  0  0  0
   -1.3532    0.8672   -1.1316 H   0  0  0  0  0  0  0  0  0  0  0  0
   -3.0212    2.3272   -0.4445 H   0  0  0  0  0  0  0  0  0  0  0  0
   -4.3014    3.4622    1.3262 H   0  0  0  0  0  0  0  0  0  0  0  0
   -3.6469    3.1938    3.6897 H   0  0  0  0  0  0  0  0  0  0  0  0
   -1.6948    1.8037    4.2731 H   0  0  0  0  0  0  0  0  0  0  0  0
   -0.4187    0.6669    2.5020 H   0  0  0  0  0  0  0  0  0  0  0  0
   -5.7550   -0.4292   -1.5114 H   0  0  0  0  0  0  0  0  0  0  0  0
   -6.7035    0.1951    0.6739 H   0  0  0  0  0  0  0  0  0  0  0  0
   -5.3579   -0.1010    2.7275 H   0  0  0  0  0  0  0  0  0  0  0  0
   -3.0485   -0.9400    2.5699 H   0  0  0  0  0  0  0  0  0  0  0  0
    0.8856   -1.8076    0.9340 H   0  0  0  0  0  0  0  0  0  0  0  0
    2.2447   -3.1549   -1.8824 H   0  0  0  0  0  0  0  0  0  0  0  0
    2.3370   -0.9393    3.1382 H   0  0  0  0  0  0  0  0  0  0  0  0
    3.5430   -2.9124    3.9836 H   0  0  0  0  0  0  0  0  0  0  0  0
    5.2322   -4.0271    2.5664 H   0  0  0  0  0  0  0  0  0  0  0  0
    5.6946   -3.1653    0.3014 H   0  0  0  0  0  0  0  0  0  0  0  0
  1  2  4  0  0  0  0
  2  3  4  0  0  0  0
  3  4  4  0  0  0  0
  4  5  4  0  0  0  0
  1  6  4  0  0  0  0
  5  6  4  0  0  0  0
  6  7  1  0  0  0  0
  7  8  1  0  0  0  0
  8  9  1  0  0  0  0
  9 10  4  0  0  0  0
 10 11  4  0  0  0  0
 11 12  4  0  0  0  0
 12 13  4  0  0  0  0
  9 14  4  0  0  0  0
 13 14  4  0  0  0  0
  8 15  1  0  0  0  0
 15 16  4  0  0  0  0
 16 17  1  0  0  0  0
 17 18  4  0  0  0  0
 18 19  1  0  0  0  0
 19 20  1  0  0  0  0
 19 21  1  0  0  0  0
 19 22  1  0  0  0  0
 18 23  4  0  0  0  0
 23 24  4  0  0  0  0
 24 25  4  0  0  0  0
 17 26  4  0  0  0  0
 25 26  4  0  0  0  0
 16 27  2  0  0  0  0
 15 28  1  0  0  0  0
 28 29  1  0  0  0  0
 29 30  1  0  0  0  0
 29 31  2  0  0  0  0
  7 32  1  0  0  0  0
 28 32  1  0  0  0  0
 32 33  4  0  0  0  0
 33 34  1  0  0  0  0
 34 35  4  0  0  0  0
 35 36  4  0  0  0  0
 36 37  4  0  0  0  0
 37 38  4  0  0  0  0
 34 39  4  0  0  0  0
 38 39  4  0  0  0  0
 39 40  1  0  0  0  0
 40 41  1  0  0  0  0
 40 42  1  0  0  0  0
 40 43  1  0  0  0  0
 33 44  2  0  0  0  0
  1 45  1  0  0  0  0
  2 46  1  0  0  0  0
  3 47  1  0  0  0  0
  4 48  1  0  0  0  0
  5 49  1  0  0  0  0
  7 50  1  0  0  0  0
  8 51  1  0  0  0  0
 10 52  1  0  0  0  0
 11 53  1  0  0  0  0
 12 54  1  0  0  0  0
 13 55  1  0  0  0  0
 14 56  1  0  0  0  0
 23 57  1  0  0  0  0
 24 58  1  0  0  0  0
 25 59  1  0  0  0  0
 26 60  1  0  0  0  0
 28 61  1  0  0  0  0
 30 62  1  0  0  0  0
 35 63  1  0  0  0  0
 36 64  1  0  0  0  0
 37 65  1  0  0  0  0
 38 66  1  0  0  0  0
M  END
