66

C     -0.138443   -3.472131    0.213567
C      0.400446   -3.553914    1.628409
F     -0.449708   -3.068103    2.570364
F      0.711682   -4.819315    2.030593
F      1.552121   -2.836684    1.767519
C     -0.266165   -4.673638   -0.515703
C     -0.708400   -4.672983   -1.835316
C     -1.029221   -3.470996   -2.450658
C     -0.915097   -2.270717   -1.748701
C     -0.481050   -2.241244   -0.409691
C     -0.400737   -0.907479    0.330379
C      0.685196    0.065877   -0.230242
C      1.874789    0.169986    0.725628
C      3.141605   -0.394719    0.425094
C      3.404687   -1.214923   -0.823450
F      2.661186   -2.355716   -0.847441
F      3.097526   -0.551466   -1.972531
F      4.700205   -1.612956   -0.968861
C      4.199700   -0.222820    1.340568
C      4.018289    0.473181    2.533692
C      2.771517    0.995049    2.848912
C      1.711244    0.846052    1.956568
N     -0.026026    1.348954   -0.387119
C      0.479661    2.592112   -0.702159
C      1.827642    2.675988   -1.209427
C      2.887748    3.253226   -0.541795
O      4.020493    3.174369   -1.282563
C      3.681753    2.592090   -2.460159
C      2.335055    2.282928   -2.489804
C      1.585002    1.695158   -3.626838
O     -0.239190    3.587909   -0.609035
C     -1.459364    1.201762   -0.215532
C     -2.172068    1.425766   -1.595306
O     -2.190764    2.716800   -2.017173
O     -2.659436    0.534021   -2.277666
N     -1.656610   -0.150123    0.284620
C     -2.743116   -0.563311    1.041757
C     -3.889564    0.323671    1.117509
C     -4.766095    0.615321    0.093573
O     -5.722360    1.481095    0.512818
C     -5.504989    1.703185    1.833155
C     -4.402319    1.000961    2.272586
C     -3.861749    0.949185    3.652361
O     -2.720952   -1.598371    1.698628
H     -0.013215   -5.627089   -0.049479
H     -0.801678   -5.607604   -2.380153
H     -1.378848   -3.464623   -3.480602
H     -1.182664   -1.355363   -2.271857
H     -0.219386   -1.095689    1.391538
H      1.002686   -0.224707   -1.231807
H      5.183590   -0.640997    1.123382
H      4.851055    0.590401    3.225205
H      2.626270    1.521536    3.789318
H      0.747648    1.271808    2.235657
H      2.998631    3.721790    0.427626
H      4.484613    2.479130   -3.175674
H      1.066619    2.481373   -4.184272
H      0.833054    0.974459   -3.286444
H      2.258534    1.175584   -4.315443
H     -1.838831    1.934481    0.507605
H     -1.737902    3.345142   -1.397642
H     -4.843860    0.300956   -0.940128
H     -6.218275    2.361529    2.314326
H     -4.504542    1.496745    4.350744
H     -3.795406   -0.085784    3.997391
H     -2.862219    1.393883    3.689576
