72

C      1.739834    0.424607    2.512180
C      2.786757    0.248722    3.420576
C      3.758979   -0.740124    3.215094
C      4.821148   -0.922004    4.115948
C      5.783054   -1.908316    3.893239
C      5.692600   -2.727148    2.772154
C      4.641349   -2.559653    1.868997
C      3.667694   -1.568521    2.075983
C      2.608847   -1.380387    1.170818
C      1.639213   -0.384215    1.373130
C      0.529174   -0.202705    0.357605
C     -0.893328   -0.489286    0.899960
C     -1.260881   -1.948672    0.694836
C     -1.533004   -2.475334   -0.580368
C     -1.813983   -3.840273   -0.764084
C     -2.078465   -4.370609   -2.037894
C     -2.346526   -5.730212   -2.204070
C     -2.357060   -6.576651   -1.099728
C     -2.099046   -6.065435    0.173034
C     -1.825060   -4.700605    0.355965
C     -1.558102   -4.173056    1.627190
C     -1.277432   -2.815151    1.794346
N     -1.714525    0.447211    0.137553
C     -3.084111    0.529824    0.323693
C     -3.813167    1.361440   -0.621011
C     -4.917143    2.123610   -0.295608
O     -5.385181    2.787596   -1.382629
C     -4.609428    2.422132   -2.440596
C     -4.979281    2.994663   -3.751074
C     -3.635229    1.538954   -2.026527
O     -3.666703   -0.055476    1.228521
C     -0.911168    1.593942   -0.259138
C     -1.129203    2.779516    0.728540
O     -1.739817    3.859127    0.182244
O     -0.816480    2.757901    1.913379
N      0.481038    1.173555   -0.144390
C      1.290191    1.496414   -1.223844
C      1.824720    2.846772   -1.226925
C      1.921787    3.717398   -0.159837
O      2.490551    4.890173   -0.540218
C      2.805034    4.773263   -1.859118
C      3.468287    5.935357   -2.482586
C      2.418015    3.536812   -2.325746
O      1.491208    0.717259   -2.149663
H      1.012449    1.210137    2.706715
H      2.839456    0.898514    4.291624
H      4.908046   -0.291954    4.997789
H      6.602332   -2.036989    4.595446
H      6.440599   -3.496210    2.597677
H      4.589230   -3.208769    0.997758
H      2.547149   -2.019244    0.290634
H      0.733217   -0.853000   -0.503842
H     -0.999347   -0.211795    1.957313
H     -1.518604   -1.817992   -1.447671
H     -2.076484   -3.726760   -2.914058
H     -2.547272   -6.126916   -3.195936
H     -2.564338   -7.635645   -1.226487
H     -2.111862   -6.741924    1.024819
H     -1.563596   -4.818792    2.502610
H     -1.069750   -2.440975    2.795331
H     -5.459822    2.290658    0.627356
H     -5.107563    4.079278   -3.675991
H     -4.203951    2.795005   -4.497425
H     -5.918037    2.558523   -4.104863
H     -2.911462    1.051439   -2.667288
H     -1.132333    1.901385   -1.284039
H     -2.038438    3.783586   -0.744649
H      1.657918    3.656004    0.888247
H      4.089756    6.468870   -1.755611
H      2.722177    6.632556   -2.876502
H      4.113831    5.618040   -3.307713
H      2.551542    3.160554   -3.331172
