
  xtb     03172202013D
 xtb: 6.3.3 (4ae9cef)
 78 84  0     0  0            999 V2000
    1.1571    2.4600    0.7520 C   0  0  0  0  0  0  0  0  0  0  0  0
    1.8900    3.4374    0.1418 C   0  0  0  0  0  0  0  0  0  0  0  0
    2.8251    3.1194   -0.8644 C   0  0  0  0  0  0  0  0  0  0  0  0
    3.6183    4.1012   -1.4922 C   0  0  0  0  0  0  0  0  0  0  0  0
    4.5205    3.7547   -2.4582 C   0  0  0  0  0  0  0  0  0  0  0  0
    4.6663    2.4133   -2.8453 C   0  0  0  0  0  0  0  0  0  0  0  0
    3.9105    1.4388   -2.2577 C   0  0  0  0  0  0  0  0  0  0  0  0
    2.9766    1.7632   -1.2525 C   0  0  0  0  0  0  0  0  0  0  0  0
    2.1983    0.7800   -0.6131 C   0  0  0  0  0  0  0  0  0  0  0  0
    1.3164    1.1119    0.3824 C   0  0  0  0  0  0  0  0  0  0  0  0
    0.4611    0.0563    1.0384 C   0  0  0  0  0  0  0  0  0  0  0  0
   -0.7086   -0.3297    0.0885 C   0  0  0  0  0  0  0  0  0  0  0  0
   -2.0405    0.0552    0.6958 C   0  0  0  0  0  0  0  0  0  0  0  0
   -2.5025    1.3341    0.5114 C   0  0  0  0  0  0  0  0  0  0  0  0
   -3.7136    1.7615    1.0898 C   0  0  0  0  0  0  0  0  0  0  0  0
   -4.2059    3.0723    0.9162 C   0  0  0  0  0  0  0  0  0  0  0  0
   -5.3869    3.4536    1.4875 C   0  0  0  0  0  0  0  0  0  0  0  0
   -6.1299    2.5437    2.2572 C   0  0  0  0  0  0  0  0  0  0  0  0
   -5.6794    1.2672    2.4437 C   0  0  0  0  0  0  0  0  0  0  0  0
   -4.4638    0.8417    1.8688 C   0  0  0  0  0  0  0  0  0  0  0  0
   -3.9654   -0.4663    2.0395 C   0  0  0  0  0  0  0  0  0  0  0  0
   -2.7823   -0.8523    1.4753 C   0  0  0  0  0  0  0  0  0  0  0  0
   -0.5113   -1.7377   -0.1680 N   0  0  0  0  0  0  0  0  0  0  0  0
   -1.0631   -2.4892   -1.1641 C   0  0  0  0  0  0  0  0  0  0  0  0
   -2.1929   -1.8276   -1.9348 C   0  0  0  0  0  0  0  0  0  0  0  0
   -3.1218   -2.8805   -2.4728 C   0  0  0  0  0  0  0  0  0  0  0  0
   -3.1315   -3.2201   -3.8170 C   0  0  0  0  0  0  0  0  0  0  0  0
   -3.9793   -4.2099   -4.2837 C   0  0  0  0  0  0  0  0  0  0  0  0
   -4.8211   -4.8721   -3.4080 C   0  0  0  0  0  0  0  0  0  0  0  0
   -4.8109   -4.5425   -2.0628 C   0  0  0  0  0  0  0  0  0  0  0  0
   -3.9660   -3.5523   -1.5975 C   0  0  0  0  0  0  0  0  0  0  0  0
   -0.6408   -3.5990   -1.3983 O   0  0  0  0  0  0  0  0  0  0  0  0
    0.5522   -2.3139    0.6095 C   0  0  0  0  0  0  0  0  0  0  0  0
   -0.0090   -3.3921    1.5952 C   0  0  0  0  0  0  0  0  0  0  0  0
    0.9024   -4.0973    2.2238 O   0  0  0  0  0  0  0  0  0  0  0  0
   -1.1867   -3.5547    1.7368 O   0  0  0  0  0  0  0  0  0  0  0  0
    1.1751   -1.1857    1.2813 N   0  0  0  0  0  0  0  0  0  0  0  0
    2.3468   -1.3415    1.9262 C   0  0  0  0  0  0  0  0  0  0  0  0
    2.9597   -0.1477    2.6162 C   0  0  0  0  0  0  0  0  0  0  0  0
    4.0354    0.5288    1.7957 C   0  0  0  0  0  0  0  0  0  0  0  0
    4.2317    1.8979    1.9167 C   0  0  0  0  0  0  0  0  0  0  0  0
    5.2309    2.5299    1.1988 C   0  0  0  0  0  0  0  0  0  0  0  0
    6.0460    1.8002    0.3521 C   0  0  0  0  0  0  0  0  0  0  0  0
    5.8648    0.4329    0.2378 C   0  0  0  0  0  0  0  0  0  0  0  0
    4.8699   -0.2012    0.9600 C   0  0  0  0  0  0  0  0  0  0  0  0
    2.8842   -2.4461    1.9736 O   0  0  0  0  0  0  0  0  0  0  0  0
    0.4455    2.7109    1.5262 H   0  0  0  0  0  0  0  0  0  0  0  0
    1.7677    4.4714    0.4300 H   0  0  0  0  0  0  0  0  0  0  0  0
    3.5013    5.1328   -1.1923 H   0  0  0  0  0  0  0  0  0  0  0  0
    5.1285    4.5110   -2.9325 H   0  0  0  0  0  0  0  0  0  0  0  0
    5.3837    2.1590   -3.6114 H   0  0  0  0  0  0  0  0  0  0  0  0
    4.0207    0.4045   -2.5489 H   0  0  0  0  0  0  0  0  0  0  0  0
    2.3181   -0.2506   -0.9166 H   0  0  0  0  0  0  0  0  0  0  0  0
    0.0509    0.4369    1.9838 H   0  0  0  0  0  0  0  0  0  0  0  0
   -0.5914    0.2241   -0.8552 H   0  0  0  0  0  0  0  0  0  0  0  0
   -1.9362    2.0354   -0.0875 H   0  0  0  0  0  0  0  0  0  0  0  0
   -3.6304    3.7678    0.3217 H   0  0  0  0  0  0  0  0  0  0  0  0
   -5.7592    4.4583    1.3509 H   0  0  0  0  0  0  0  0  0  0  0  0
   -7.0617    2.8636    2.6999 H   0  0  0  0  0  0  0  0  0  0  0  0
   -6.2472    0.5630    3.0346 H   0  0  0  0  0  0  0  0  0  0  0  0
   -4.5361   -1.1677    2.6302 H   0  0  0  0  0  0  0  0  0  0  0  0
   -2.4149   -1.8574    1.6099 H   0  0  0  0  0  0  0  0  0  0  0  0
   -2.7381   -1.1446   -1.2827 H   0  0  0  0  0  0  0  0  0  0  0  0
   -1.7491   -1.2539   -2.7534 H   0  0  0  0  0  0  0  0  0  0  0  0
   -2.4702   -2.7111   -4.5041 H   0  0  0  0  0  0  0  0  0  0  0  0
   -3.9785   -4.4670   -5.3331 H   0  0  0  0  0  0  0  0  0  0  0  0
   -5.4804   -5.6468   -3.7715 H   0  0  0  0  0  0  0  0  0  0  0  0
   -5.4607   -5.0621   -1.3740 H   0  0  0  0  0  0  0  0  0  0  0  0
   -3.9501   -3.3013   -0.5467 H   0  0  0  0  0  0  0  0  0  0  0  0
    1.2734   -2.8329   -0.0478 H   0  0  0  0  0  0  0  0  0  0  0  0
    1.8187   -3.7288    2.0892 H   0  0  0  0  0  0  0  0  0  0  0  0
    2.1986    0.5778    2.9009 H   0  0  0  0  0  0  0  0  0  0  0  0
    3.4292   -0.5366    3.5263 H   0  0  0  0  0  0  0  0  0  0  0  0
    3.5995    2.4737    2.5771 H   0  0  0  0  0  0  0  0  0  0  0  0
    5.3721    3.5956    1.3012 H   0  0  0  0  0  0  0  0  0  0  0  0
    6.8213    2.2947   -0.2134 H   0  0  0  0  0  0  0  0  0  0  0  0
    6.5043   -0.1448   -0.4128 H   0  0  0  0  0  0  0  0  0  0  0  0
    4.7451   -1.2706    0.8804 H   0  0  0  0  0  0  0  0  0  0  0  0
  1  2  2  0  0  0  0
  2  3  4  0  0  0  0
  3  4  4  0  0  0  0
  4  5  2  0  0  0  0
  5  6  4  0  0  0  0
  6  7  2  0  0  0  0
  3  8  4  0  0  0  0
  7  8  4  0  0  0  0
  8  9  4  0  0  0  0
  1 10  4  0  0  0  0
  9 10  2  0  0  0  0
 10 11  1  0  0  0  0
 11 12  1  0  0  0  0
 12 13  1  0  0  0  0
 13 14  2  0  0  0  0
 14 15  4  0  0  0  0
 15 16  4  0  0  0  0
 16 17  2  0  0  0  0
 17 18  4  0  0  0  0
 18 19  2  0  0  0  0
 15 20  4  0  0  0  0
 19 20  4  0  0  0  0
 20 21  4  0  0  0  0
 13 22  4  0  0  0  0
 21 22  2  0  0  0  0
 12 23  1  0  0  0  0
 23 24  1  0  0  0  0
 24 25  1  0  0  0  0
 25 26  1  0  0  0  0
 26 27  4  0  0  0  0
 27 28  4  0  0  0  0
 28 29  4  0  0  0  0
 29 30  4  0  0  0  0
 26 31  4  0  0  0  0
 30 31  4  0  0  0  0
 24 32  2  0  0  0  0
 23 33  1  0  0  0  0
 33 34  1  0  0  0  0
 34 35  4  0  0  0  0
 34 36  2  0  0  0  0
 11 37  1  0  0  0  0
 33 37  1  0  0  0  0
 37 38  4  0  0  0  0
 38 39  1  0  0  0  0
 39 40  1  0  0  0  0
 40 41  4  0  0  0  0
 41 42  4  0  0  0  0
 42 43  4  0  0  0  0
 43 44  4  0  0  0  0
 40 45  4  0  0  0  0
 44 45  4  0  0  0  0
 38 46  2  0  0  0  0
  1 47  1  0  0  0  0
  2 48  1  0  0  0  0
  4 49  1  0  0  0  0
  5 50  1  0  0  0  0
  6 51  1  0  0  0  0
  7 52  1  0  0  0  0
  9 53  1  0  0  0  0
 11 54  1  0  0  0  0
 12 55  1  0  0  0  0
 14 56  1  0  0  0  0
 16 57  1  0  0  0  0
 17 58  1  0  0  0  0
 18 59  1  0  0  0  0
 19 60  1  0  0  0  0
 21 61  1  0  0  0  0
 22 62  1  0  0  0  0
 25 63  1  0  0  0  0
 25 64  1  0  0  0  0
 27 65  1  0  0  0  0
 28 66  1  0  0  0  0
 29 67  1  0  0  0  0
 30 68  1  0  0  0  0
 31 69  1  0  0  0  0
 33 70  1  0  0  0  0
 35 71  1  0  0  0  0
 39 72  1  0  0  0  0
 39 73  1  0  0  0  0
 41 74  1  0  0  0  0
 42 75  1  0  0  0  0
 43 76  1  0  0  0  0
 44 77  1  0  0  0  0
 45 78  1  0  0  0  0
M  END
