72

C      2.452203   -2.241267   -0.538644
C      2.050320   -2.677732   -1.940657
F      2.039227   -1.654723   -2.838397
F      2.874384   -3.628706   -2.472893
F      0.804005   -3.222341   -1.968933
C      3.555545   -2.883918    0.065873
C      3.960816   -2.562029    1.362422
C      3.266185   -1.596478    2.084076
C      2.179114   -0.936272    1.505286
C      1.754293   -1.234672    0.188832
C      0.532446   -0.529479   -0.397797
C     -0.747041   -0.839991    0.428066
C     -1.337727   -2.237777    0.260462
C     -2.093790   -2.709028   -0.839127
C     -2.405923   -1.889883   -2.074184
F     -3.095896   -2.588114   -3.030220
F     -1.280780   -1.462325   -2.693672
F     -3.172446   -0.783202   -1.827501
C     -2.569149   -4.042785   -0.821105
C     -2.299485   -4.903299    0.239214
C     -1.543943   -4.454076    1.310122
C     -1.073571   -3.140929    1.319807
N     -1.638596    0.291743    0.199410
C     -2.673847    0.497908    1.106117
C     -3.560133    1.665834    0.938895
C     -4.434413    1.727289   -0.152019
C     -5.352789    2.772578   -0.236612
C     -5.416147    3.736223    0.775317
C     -4.553770    3.668102    1.881229
C     -4.650470    4.676326    2.986608
C     -3.621609    2.623496    1.960671
O     -2.912978   -0.256994    2.047743
C     -0.862692    1.427755   -0.318173
C     -1.372409    1.857601   -1.724544
O     -1.989539    3.062353   -1.720183
O     -1.276187    1.220985   -2.763216
N      0.521960    0.944604   -0.408446
C      1.474410    1.839144   -0.852912
C      2.868093    1.405275   -1.024712
C      3.752337    1.546638    0.053816
C      5.081615    1.120111   -0.060636
C      6.018823    1.247612    1.102571
C      5.521174    0.595515   -1.283569
C      4.649236    0.504625   -2.376708
C      3.319786    0.913512   -2.255299
O      1.227675    3.024494   -1.063763
H      4.115872   -3.642664   -0.487497
H      4.817341   -3.071833    1.804254
H      3.572856   -1.343532    3.093180
H      1.668455   -0.174282    2.093053
H      0.394720   -0.801337   -1.442595
H     -0.494837   -0.735410    1.495460
H     -3.154448   -4.429634   -1.656714
H     -2.672519   -5.923597    0.227770
H     -1.330091   -5.115876    2.144986
H     -0.500315   -2.816403    2.188729
H     -4.429707    0.953069   -0.915307
H     -6.043175    2.819939   -1.078887
H     -6.150933    4.535520    0.701074
H     -4.796812    4.168345    3.942454
H     -3.740222    5.276617    3.026235
H     -5.500522    5.351464    2.831940
H     -2.964392    2.544475    2.826652
H     -0.888410    2.279395    0.372759
H     -2.234277    3.209962   -2.658351
H      3.386929    1.969696    0.990101
H      5.498186    1.007544    2.037870
H      6.863431    0.559030    1.011066
H      6.400598    2.272540    1.156127
H      6.551082    0.254373   -1.399782
H      5.014957    0.106266   -3.326067
H      2.647916    0.852631   -3.111125
