
  xtb     03172200353D
 xtb: 6.3.3 (4ae9cef)
 72 76  0     0  0            999 V2000
    2.5310   -2.0680   -0.0351 C   0  0  0  0  0  0  0  0  0  0  0  0
    2.1981   -2.8017   -1.3082 C   0  0  0  0  0  0  0  0  0  0  0  0
    2.2020   -2.0325   -2.4055 F   0  0  0  0  0  0  0  0  0  0  0  0
    3.0537   -3.8025   -1.5618 F   0  0  0  0  0  0  0  0  0  0  0  0
    0.9766   -3.3736   -1.2597 F   0  0  0  0  0  0  0  0  0  0  0  0
    3.6575   -2.4707    0.6749 C   0  0  0  0  0  0  0  0  0  0  0  0
    3.9779   -1.8751    1.8792 C   0  0  0  0  0  0  0  0  0  0  0  0
    3.1581   -0.8851    2.3926 C   0  0  0  0  0  0  0  0  0  0  0  0
    2.0469   -0.4762    1.6826 C   0  0  0  0  0  0  0  0  0  0  0  0
    1.7238   -1.0378    0.4504 C   0  0  0  0  0  0  0  0  0  0  0  0
    0.5084   -0.5175   -0.2747 C   0  0  0  0  0  0  0  0  0  0  0  0
   -0.7916   -0.9593    0.4454 C   0  0  0  0  0  0  0  0  0  0  0  0
   -1.3720   -2.2931    0.0375 C   0  0  0  0  0  0  0  0  0  0  0  0
   -2.0570   -2.5911   -1.1460 C   0  0  0  0  0  0  0  0  0  0  0  0
   -2.2667   -1.6066   -2.2672 C   0  0  0  0  0  0  0  0  0  0  0  0
   -2.9525   -2.1311   -3.2952 F   0  0  0  0  0  0  0  0  0  0  0  0
   -1.1078   -1.1794   -2.7962 F   0  0  0  0  0  0  0  0  0  0  0  0
   -2.9562   -0.4996   -1.9287 F   0  0  0  0  0  0  0  0  0  0  0  0
   -2.5550   -3.8737   -1.3586 C   0  0  0  0  0  0  0  0  0  0  0  0
   -2.3742   -4.8752   -0.4267 C   0  0  0  0  0  0  0  0  0  0  0  0
   -1.6786   -4.5999    0.7352 C   0  0  0  0  0  0  0  0  0  0  0  0
   -1.1943   -3.3270    0.9547 C   0  0  0  0  0  0  0  0  0  0  0  0
   -1.6856    0.1836    0.3023 N   0  0  0  0  0  0  0  0  0  0  0  0
   -2.9392    0.1174    0.8341 C   0  0  0  0  0  0  0  0  0  0  0  0
   -3.7259    1.3829    0.8322 C   0  0  0  0  0  0  0  0  0  0  0  0
   -4.8509    1.4858    0.0246 C   0  0  0  0  0  0  0  0  0  0  0  0
   -5.6107    2.6398    0.0600 C   0  0  0  0  0  0  0  0  0  0  0  0
   -5.2653    3.6785    0.9073 C   0  0  0  0  0  0  0  0  0  0  0  0
   -4.1588    3.5778    1.7391 C   0  0  0  0  0  0  0  0  0  0  0  0
   -3.7767    4.6896    2.6678 C   0  0  0  0  0  0  0  0  0  0  0  0
   -3.3936    2.4190    1.6927 C   0  0  0  0  0  0  0  0  0  0  0  0
   -3.3692   -0.9293    1.2752 O   0  0  0  0  0  0  0  0  0  0  0  0
   -0.9710    1.3491   -0.1567 C   0  0  0  0  0  0  0  0  0  0  0  0
   -1.3743    1.7981   -1.5831 C   0  0  0  0  0  0  0  0  0  0  0  0
   -2.5098    2.4781   -1.5842 O   0  0  0  0  0  0  0  0  0  0  0  0
   -0.7084    1.5790   -2.5530 O   0  0  0  0  0  0  0  0  0  0  0  0
    0.4095    0.9309   -0.1827 N   0  0  0  0  0  0  0  0  0  0  0  0
    1.3776    1.8734   -0.3809 C   0  0  0  0  0  0  0  0  0  0  0  0
    2.7188    1.3511   -0.7645 C   0  0  0  0  0  0  0  0  0  0  0  0
    3.8069    1.4918    0.0853 C   0  0  0  0  0  0  0  0  0  0  0  0
    5.0555    1.0084   -0.2788 C   0  0  0  0  0  0  0  0  0  0  0  0
    6.2218    1.1462    0.6514 C   0  0  0  0  0  0  0  0  0  0  0  0
    5.2032    0.4171   -1.5277 C   0  0  0  0  0  0  0  0  0  0  0  0
    4.1320    0.3221   -2.3982 C   0  0  0  0  0  0  0  0  0  0  0  0
    2.8829    0.7816   -2.0208 C   0  0  0  0  0  0  0  0  0  0  0  0
    1.1287    3.0523   -0.2326 O   0  0  0  0  0  0  0  0  0  0  0  0
    4.2820   -3.2566    0.2805 H   0  0  0  0  0  0  0  0  0  0  0  0
    4.8583   -2.1907    2.4162 H   0  0  0  0  0  0  0  0  0  0  0  0
    3.3873   -0.4270    3.3427 H   0  0  0  0  0  0  0  0  0  0  0  0
    1.4216    0.3120    2.0744 H   0  0  0  0  0  0  0  0  0  0  0  0
    0.5035   -0.8307   -1.3210 H   0  0  0  0  0  0  0  0  0  0  0  0
   -0.5623   -1.0513    1.5194 H   0  0  0  0  0  0  0  0  0  0  0  0
   -3.0905   -4.0897   -2.2696 H   0  0  0  0  0  0  0  0  0  0  0  0
   -2.7728   -5.8600   -0.6125 H   0  0  0  0  0  0  0  0  0  0  0  0
   -1.5200   -5.3700    1.4743 H   0  0  0  0  0  0  0  0  0  0  0  0
   -0.6646   -3.1199    1.8727 H   0  0  0  0  0  0  0  0  0  0  0  0
   -5.1119    0.6677   -0.6277 H   0  0  0  0  0  0  0  0  0  0  0  0
   -6.4820    2.7291   -0.5718 H   0  0  0  0  0  0  0  0  0  0  0  0
   -5.8673    4.5756    0.9291 H   0  0  0  0  0  0  0  0  0  0  0  0
   -3.6473    4.3134    3.6813 H   0  0  0  0  0  0  0  0  0  0  0  0
   -2.8321    5.1331    2.3535 H   0  0  0  0  0  0  0  0  0  0  0  0
   -4.5358    5.4672    2.6779 H   0  0  0  0  0  0  0  0  0  0  0  0
   -2.5434    2.3211    2.3547 H   0  0  0  0  0  0  0  0  0  0  0  0
   -1.1042    2.2163    0.5039 H   0  0  0  0  0  0  0  0  0  0  0  0
   -2.7550    2.7422   -2.4866 H   0  0  0  0  0  0  0  0  0  0  0  0
    3.6729    1.9716    1.0439 H   0  0  0  0  0  0  0  0  0  0  0  0
    5.9051    1.0389    1.6865 H   0  0  0  0  0  0  0  0  0  0  0  0
    6.9825    0.4006    0.4335 H   0  0  0  0  0  0  0  0  0  0  0  0
    6.6721    2.1325    0.5384 H   0  0  0  0  0  0  0  0  0  0  0  0
    6.1709    0.0386   -1.8245 H   0  0  0  0  0  0  0  0  0  0  0  0
    4.2643   -0.1226   -3.3724 H   0  0  0  0  0  0  0  0  0  0  0  0
    2.0429    0.7108   -2.6944 H   0  0  0  0  0  0  0  0  0  0  0  0
  1  2  1  0  0  0  0
  2  3  1  0  0  0  0
  2  4  1  0  0  0  0
  2  5  1  0  0  0  0
  1  6  4  0  0  0  0
  6  7  4  0  0  0  0
  7  8  4  0  0  0  0
  8  9  4  0  0  0  0
  1 10  4  0  0  0  0
  9 10  4  0  0  0  0
 10 11  1  0  0  0  0
 11 12  1  0  0  0  0
 12 13  1  0  0  0  0
 13 14  4  0  0  0  0
 14 15  1  0  0  0  0
 15 16  1  0  0  0  0
 15 17  1  0  0  0  0
 15 18  1  0  0  0  0
 14 19  4  0  0  0  0
 19 20  4  0  0  0  0
 20 21  4  0  0  0  0
 13 22  4  0  0  0  0
 21 22  4  0  0  0  0
 12 23  1  0  0  0  0
 23 24  1  0  0  0  0
 24 25  1  0  0  0  0
 25 26  4  0  0  0  0
 26 27  4  0  0  0  0
 27 28  4  0  0  0  0
 28 29  4  0  0  0  0
 29 30  1  0  0  0  0
 25 31  4  0  0  0  0
 29 31  4  0  0  0  0
 24 32  2  0  0  0  0
 23 33  1  0  0  0  0
 33 34  1  0  0  0  0
 34 35  1  0  0  0  0
 34 36  2  0  0  0  0
 11 37  1  0  0  0  0
 33 37  1  0  0  0  0
 37 38  1  0  0  0  0
 38 39  1  0  0  0  0
 39 40  4  0  0  0  0
 40 41  4  0  0  0  0
 41 42  1  0  0  0  0
 41 43  4  0  0  0  0
 43 44  4  0  0  0  0
 39 45  4  0  0  0  0
 44 45  4  0  0  0  0
 38 46  2  0  0  0  0
  6 47  1  0  0  0  0
  7 48  1  0  0  0  0
  8 49  1  0  0  0  0
  9 50  1  0  0  0  0
 11 51  1  0  0  0  0
 12 52  1  0  0  0  0
 19 53  1  0  0  0  0
 20 54  1  0  0  0  0
 21 55  1  0  0  0  0
 22 56  1  0  0  0  0
 26 57  1  0  0  0  0
 27 58  1  0  0  0  0
 28 59  1  0  0  0  0
 30 60  1  0  0  0  0
 30 61  1  0  0  0  0
 30 62  1  0  0  0  0
 31 63  1  0  0  0  0
 33 64  1  0  0  0  0
 35 65  1  0  0  0  0
 40 66  1  0  0  0  0
 42 67  1  0  0  0  0
 42 68  1  0  0  0  0
 42 69  1  0  0  0  0
 43 70  1  0  0  0  0
 44 71  1  0  0  0  0
 45 72  1  0  0  0  0
M  END
