72

C     -3.909130   -4.059195   -0.825000
C     -4.435724   -3.164542   -1.749923
C     -3.952373   -1.868804   -1.798901
C     -2.931158   -1.475899   -0.922600
C     -2.348268   -2.356781    0.014057
C     -2.885863   -3.675141    0.058232
C     -2.405810   -4.604442    0.985721
C     -1.391717   -4.268073    1.872009
C     -0.837308   -2.993809    1.832585
C     -1.286599   -2.018344    0.910503
C     -0.541330   -0.683414    0.950846
C      0.182948   -0.276025   -0.366072
C      1.435628   -1.008637   -0.809405
C      2.233339   -1.707054    0.113962
C      3.364549   -2.406540   -0.300687
C      3.714376   -2.438752   -1.646386
C      2.966863   -1.735296   -2.592853
C      1.826314   -0.992940   -2.191097
C      1.156923   -0.265407   -3.208714
C      1.572746   -0.295677   -4.546046
C      2.673240   -1.054776   -4.912918
C      3.366226   -1.767939   -3.940897
N      0.259714    1.176835   -0.185742
C      1.138543    2.098192   -0.701910
C      2.544480    1.843966   -0.468633
C      3.082561    1.549956    0.768941
O      4.434759    1.442838    0.705577
C      4.786626    1.717444   -0.589554
C      6.230345    1.665310   -0.891497
C      3.661882    1.993142   -1.340804
O      0.762361    3.188979   -1.117408
C     -0.923569    1.645431    0.498741
C     -2.102523    2.025890   -0.450115
O     -3.320770    1.762074    0.078708
O     -2.069229    2.555097   -1.537755
N     -1.302917    0.519919    1.358131
C     -1.818315    0.596364    2.654763
C     -2.285432    1.856616    3.240629
C     -2.666087    1.917329    4.575085
O     -2.998439    3.172542    4.950168
C     -2.851408    3.959109    3.852580
C     -3.114343    5.402235    4.030056
C     -2.476851    3.190935    2.772121
O     -1.841346   -0.414708    3.355979
H     -4.323828   -5.064027   -0.793788
H     -5.229781   -3.480583   -2.420692
H     -4.367056   -1.156436   -2.505070
H     -2.607705   -0.445617   -0.990320
H     -2.831719   -5.604276    1.029448
H     -1.046497   -4.995280    2.598578
H     -0.057815   -2.759427    2.552465
H      0.226852   -0.748432    1.729190
H     -0.532440   -0.406378   -1.182813
H      2.003823   -1.708478    1.174816
H      4.003653   -2.908970    0.424868
H      4.593069   -3.003064   -1.947820
H      0.295694    0.356657   -2.983266
H      1.033042    0.282732   -5.286431
H      2.985609   -1.103064   -5.951178
H      4.235188   -2.350913   -4.244862
H      2.661209    1.420090    1.754357
H      6.472242    2.346085   -1.713534
H      6.817928    1.972694   -0.018303
H      6.523667    0.649333   -1.174257
H      3.645687    2.244728   -2.393463
H     -0.628176    2.519308    1.081139
H     -3.968818    2.078359   -0.586441
H     -2.720659    1.165217    5.353508
H     -4.186852    5.593323    4.081298
H     -2.704033    5.973281    3.191286
H     -2.652665    5.777106    4.950897
H     -2.337532    3.608023    1.785908
