
  xtb     03172200563D
 xtb: 6.3.3 (4ae9cef)
 72 78  0     0  0            999 V2000
   -3.9511   -3.8796   -0.7511 C   0  0  0  0  0  0  0  0  0  0  0  0
   -4.4894   -2.9140   -1.5520 C   0  0  0  0  0  0  0  0  0  0  0  0
   -3.9873   -1.6067   -1.4930 C   0  0  0  0  0  0  0  0  0  0  0  0
   -2.9481   -1.3005   -0.6601 C   0  0  0  0  0  0  0  0  0  0  0  0
   -2.3424   -2.2746    0.1607 C   0  0  0  0  0  0  0  0  0  0  0  0
   -2.8829   -3.5910    0.1246 C   0  0  0  0  0  0  0  0  0  0  0  0
   -2.3588   -4.5872    0.9715 C   0  0  0  0  0  0  0  0  0  0  0  0
   -1.3489   -4.2891    1.8394 C   0  0  0  0  0  0  0  0  0  0  0  0
   -0.8022   -3.0016    1.8615 C   0  0  0  0  0  0  0  0  0  0  0  0
   -1.2516   -2.0040    1.0302 C   0  0  0  0  0  0  0  0  0  0  0  0
   -0.5336   -0.6788    1.0845 C   0  0  0  0  0  0  0  0  0  0  0  0
    0.2058   -0.2533   -0.2024 C   0  0  0  0  0  0  0  0  0  0  0  0
    1.4555   -0.9938   -0.5908 C   0  0  0  0  0  0  0  0  0  0  0  0
    2.0698   -1.8868    0.2480 C   0  0  0  0  0  0  0  0  0  0  0  0
    3.2117   -2.5964   -0.1495 C   0  0  0  0  0  0  0  0  0  0  0  0
    3.7403   -2.4082   -1.3922 C   0  0  0  0  0  0  0  0  0  0  0  0
    3.1381   -1.5079   -2.2949 C   0  0  0  0  0  0  0  0  0  0  0  0
    1.9728   -0.7953   -1.9041 C   0  0  0  0  0  0  0  0  0  0  0  0
    1.3985    0.0998   -2.8341 C   0  0  0  0  0  0  0  0  0  0  0  0
    1.9494    0.2765   -4.0734 C   0  0  0  0  0  0  0  0  0  0  0  0
    3.1029   -0.4232   -4.4526 C   0  0  0  0  0  0  0  0  0  0  0  0
    3.6819   -1.2985   -3.5792 C   0  0  0  0  0  0  0  0  0  0  0  0
    0.3324    1.1867    0.0310 N   0  0  0  0  0  0  0  0  0  0  0  0
    1.3748    2.0549    0.1249 C   0  0  0  0  0  0  0  0  0  0  0  0
    2.7310    1.5605   -0.1970 C   0  0  0  0  0  0  0  0  0  0  0  0
    3.5666    0.8240    0.5879 C   0  0  0  0  0  0  0  0  0  0  0  0
    4.7548    0.6548   -0.0129 O   0  0  0  0  0  0  0  0  0  0  0  0
    4.7051    1.2980   -1.1998 C   0  0  0  0  0  0  0  0  0  0  0  0
    5.8995    1.2548   -2.0820 C   0  0  0  0  0  0  0  0  0  0  0  0
    3.4880    1.8876   -1.3573 C   0  0  0  0  0  0  0  0  0  0  0  0
    1.1770    3.2094    0.4547 O   0  0  0  0  0  0  0  0  0  0  0  0
   -0.9616    1.5978    0.5257 C   0  0  0  0  0  0  0  0  0  0  0  0
   -1.8726    1.8723   -0.6866 C   0  0  0  0  0  0  0  0  0  0  0  0
   -3.1161    2.2077   -0.3527 O   0  0  0  0  0  0  0  0  0  0  0  0
   -1.4901    1.8342   -1.8238 O   0  0  0  0  0  0  0  0  0  0  0  0
   -1.3885    0.4917    1.3648 N   0  0  0  0  0  0  0  0  0  0  0  0
   -1.8425    0.5773    2.6590 C   0  0  0  0  0  0  0  0  0  0  0  0
   -2.3596    1.8499    3.1806 C   0  0  0  0  0  0  0  0  0  0  0  0
   -2.3992    2.0820    4.5327 C   0  0  0  0  0  0  0  0  0  0  0  0
   -2.8967    3.2899    4.7989 O   0  0  0  0  0  0  0  0  0  0  0  0
   -3.2106    3.8683    3.6164 C   0  0  0  0  0  0  0  0  0  0  0  0
   -3.8094    5.2284    3.6291 C   0  0  0  0  0  0  0  0  0  0  0  0
   -2.8975    3.0314    2.5892 C   0  0  0  0  0  0  0  0  0  0  0  0
   -1.7923   -0.4064    3.3753 O   0  0  0  0  0  0  0  0  0  0  0  0
   -4.3414   -4.8873   -0.7683 H   0  0  0  0  0  0  0  0  0  0  0  0
   -5.3066   -3.1436   -2.2197 H   0  0  0  0  0  0  0  0  0  0  0  0
   -4.4314   -0.8394   -2.1107 H   0  0  0  0  0  0  0  0  0  0  0  0
   -2.5993   -0.2851   -0.6056 H   0  0  0  0  0  0  0  0  0  0  0  0
   -2.7823   -5.5803    0.9316 H   0  0  0  0  0  0  0  0  0  0  0  0
   -0.9608   -5.0390    2.5123 H   0  0  0  0  0  0  0  0  0  0  0  0
   -0.0160   -2.7937    2.5719 H   0  0  0  0  0  0  0  0  0  0  0  0
    0.1862   -0.7347    1.9137 H   0  0  0  0  0  0  0  0  0  0  0  0
   -0.4959   -0.3744   -1.0392 H   0  0  0  0  0  0  0  0  0  0  0  0
    1.6880   -2.0587    1.2398 H   0  0  0  0  0  0  0  0  0  0  0  0
    3.6673   -3.2878    0.5434 H   0  0  0  0  0  0  0  0  0  0  0  0
    4.6255   -2.9436   -1.7042 H   0  0  0  0  0  0  0  0  0  0  0  0
    0.5230    0.6712   -2.5714 H   0  0  0  0  0  0  0  0  0  0  0  0
    1.4948    0.9668   -4.7685 H   0  0  0  0  0  0  0  0  0  0  0  0
    3.5258   -0.2660   -5.4340 H   0  0  0  0  0  0  0  0  0  0  0  0
    4.5699   -1.8482   -3.8580 H   0  0  0  0  0  0  0  0  0  0  0  0
    3.4381    0.3871    1.5577 H   0  0  0  0  0  0  0  0  0  0  0  0
    5.6827    1.7686   -3.0130 H   0  0  0  0  0  0  0  0  0  0  0  0
    6.7508    1.7322   -1.5981 H   0  0  0  0  0  0  0  0  0  0  0  0
    6.1688    0.2220   -2.2969 H   0  0  0  0  0  0  0  0  0  0  0  0
    3.1510    2.4708   -2.1882 H   0  0  0  0  0  0  0  0  0  0  0  0
   -0.8635    2.5370    1.0880 H   0  0  0  0  0  0  0  0  0  0  0  0
   -3.6503    2.3853   -1.1452 H   0  0  0  0  0  0  0  0  0  0  0  0
   -2.0889    1.4653    5.3520 H   0  0  0  0  0  0  0  0  0  0  0  0
   -4.8206    5.1963    4.0341 H   0  0  0  0  0  0  0  0  0  0  0  0
   -3.8461    5.6228    2.6185 H   0  0  0  0  0  0  0  0  0  0  0  0
   -3.2182    5.8941    4.2550 H   0  0  0  0  0  0  0  0  0  0  0  0
   -3.0734    3.2208    1.5538 H   0  0  0  0  0  0  0  0  0  0  0  0
  1  2  2  0  0  0  0
  2  3  4  0  0  0  0
  3  4  2  0  0  0  0
  4  5  4  0  0  0  0
  1  6  4  0  0  0  0
  5  6  4  0  0  0  0
  6  7  4  0  0  0  0
  7  8  2  0  0  0  0
  8  9  4  0  0  0  0
  5 10  4  0  0  0  0
  9 10  2  0  0  0  0
 10 11  1  0  0  0  0
 11 12  1  0  0  0  0
 12 13  1  0  0  0  0
 13 14  2  0  0  0  0
 14 15  4  0  0  0  0
 15 16  2  0  0  0  0
 16 17  4  0  0  0  0
 13 18  4  0  0  0  0
 17 18  4  0  0  0  0
 18 19  4  0  0  0  0
 19 20  2  0  0  0  0
 20 21  4  0  0  0  0
 17 22  4  0  0  0  0
 21 22  2  0  0  0  0
 12 23  1  0  0  0  0
 23 24  4  0  0  0  0
 24 25  1  0  0  0  0
 25 26  2  0  0  0  0
 26 27  1  0  0  0  0
 27 28  1  0  0  0  0
 28 29  1  0  0  0  0
 25 30  4  0  0  0  0
 28 30  2  0  0  0  0
 24 31  2  0  0  0  0
 23 32  1  0  0  0  0
 32 33  1  0  0  0  0
 33 34  1  0  0  0  0
 33 35  2  0  0  0  0
 11 36  1  0  0  0  0
 32 36  1  0  0  0  0
 36 37  1  0  0  0  0
 37 38  1  0  0  0  0
 38 39  2  0  0  0  0
 39 40  1  0  0  0  0
 40 41  1  0  0  0  0
 41 42  1  0  0  0  0
 38 43  4  0  0  0  0
 41 43  2  0  0  0  0
 37 44  2  0  0  0  0
  1 45  1  0  0  0  0
  2 46  1  0  0  0  0
  3 47  1  0  0  0  0
  4 48  1  0  0  0  0
  7 49  1  0  0  0  0
  8 50  1  0  0  0  0
  9 51  1  0  0  0  0
 11 52  1  0  0  0  0
 12 53  1  0  0  0  0
 14 54  1  0  0  0  0
 15 55  1  0  0  0  0
 16 56  1  0  0  0  0
 19 57  1  0  0  0  0
 20 58  1  0  0  0  0
 21 59  1  0  0  0  0
 22 60  1  0  0  0  0
 26 61  1  0  0  0  0
 29 62  1  0  0  0  0
 29 63  1  0  0  0  0
 29 64  1  0  0  0  0
 30 65  1  0  0  0  0
 32 66  1  0  0  0  0
 34 67  1  0  0  0  0
 39 68  1  0  0  0  0
 42 69  1  0  0  0  0
 42 70  1  0  0  0  0
 42 71  1  0  0  0  0
 43 72  1  0  0  0  0
M  END
