
  xtb     03162223353D
 xtb: 6.3.3 (4ae9cef)
 66 70  0     0  0            999 V2000
   -2.5483    2.3899    1.6142 C   0  0  0  0  0  0  0  0  0  0  0  0
   -2.9784    3.3192    2.5465 C   0  0  0  0  0  0  0  0  0  0  0  0
   -2.1476    4.3553    2.9335 C   0  0  0  0  0  0  0  0  0  0  0  0
   -0.8872    4.4691    2.3707 C   0  0  0  0  0  0  0  0  0  0  0  0
   -0.4554    3.5406    1.4415 C   0  0  0  0  0  0  0  0  0  0  0  0
   -1.2765    2.4827    1.0671 C   0  0  0  0  0  0  0  0  0  0  0  0
   -0.7744    1.4832    0.0504 C   0  0  0  0  0  0  0  0  0  0  0  0
    0.6015    0.8690    0.4350 C   0  0  0  0  0  0  0  0  0  0  0  0
    1.5981    0.9490   -0.6934 C   0  0  0  0  0  0  0  0  0  0  0  0
    2.7592    1.6979   -0.5546 C   0  0  0  0  0  0  0  0  0  0  0  0
    3.6821    1.7520   -1.5839 C   0  0  0  0  0  0  0  0  0  0  0  0
    3.4481    1.0646   -2.7625 C   0  0  0  0  0  0  0  0  0  0  0  0
    2.2816    0.3340   -2.9141 C   0  0  0  0  0  0  0  0  0  0  0  0
    1.3590    0.2762   -1.8856 C   0  0  0  0  0  0  0  0  0  0  0  0
    0.2666   -0.5071    0.7714 N   0  0  0  0  0  0  0  0  0  0  0  0
    1.1027   -1.5401    1.0156 C   0  0  0  0  0  0  0  0  0  0  0  0
    2.5501   -1.2020    0.9680 C   0  0  0  0  0  0  0  0  0  0  0  0
    3.4737   -1.6867    0.0824 C   0  0  0  0  0  0  0  0  0  0  0  0
    3.3193   -2.5942   -1.0893 C   0  0  0  0  0  0  0  0  0  0  0  0
    3.7242   -3.8497   -0.8348 F   0  0  0  0  0  0  0  0  0  0  0  0
    4.0378   -2.1813   -2.1457 F   0  0  0  0  0  0  0  0  0  0  0  0
    2.0468   -2.6726   -1.4915 F   0  0  0  0  0  0  0  0  0  0  0  0
    4.7005   -1.2023    0.3600 O   0  0  0  0  0  0  0  0  0  0  0  0
    4.5841   -0.4119    1.4421 C   0  0  0  0  0  0  0  0  0  0  0  0
    5.8028    0.2572    1.9599 C   0  0  0  0  0  0  0  0  0  0  0  0
    3.2845   -0.3764    1.8594 C   0  0  0  0  0  0  0  0  0  0  0  0
    0.6949   -2.6545    1.2662 O   0  0  0  0  0  0  0  0  0  0  0  0
   -1.1611   -0.7168    0.7632 C   0  0  0  0  0  0  0  0  0  0  0  0
   -1.7564   -0.5816    2.1822 C   0  0  0  0  0  0  0  0  0  0  0  0
   -0.8831   -0.0888    3.0493 O   0  0  0  0  0  0  0  0  0  0  0  0
   -2.8835   -0.8793    2.4625 O   0  0  0  0  0  0  0  0  0  0  0  0
   -1.6480    0.3307   -0.0907 N   0  0  0  0  0  0  0  0  0  0  0  0
   -2.4273    0.1991   -1.2027 C   0  0  0  0  0  0  0  0  0  0  0  0
   -3.1342   -1.0929   -1.3538 C   0  0  0  0  0  0  0  0  0  0  0  0
   -3.2715   -1.7754   -2.5372 C   0  0  0  0  0  0  0  0  0  0  0  0
   -2.6723   -1.5141   -3.8789 C   0  0  0  0  0  0  0  0  0  0  0  0
   -1.4346   -1.0065   -3.7730 F   0  0  0  0  0  0  0  0  0  0  0  0
   -3.3820   -0.6516   -4.6196 F   0  0  0  0  0  0  0  0  0  0  0  0
   -2.5676   -2.6365   -4.6034 F   0  0  0  0  0  0  0  0  0  0  0  0
   -4.0343   -2.8691   -2.3691 O   0  0  0  0  0  0  0  0  0  0  0  0
   -4.4168   -2.8990   -1.0773 C   0  0  0  0  0  0  0  0  0  0  0  0
   -5.2849   -4.0116   -0.6213 C   0  0  0  0  0  0  0  0  0  0  0  0
   -3.8911   -1.8332   -0.4051 C   0  0  0  0  0  0  0  0  0  0  0  0
   -2.5563    1.1028   -1.9985 O   0  0  0  0  0  0  0  0  0  0  0  0
   -3.2136    1.5980    1.3058 H   0  0  0  0  0  0  0  0  0  0  0  0
   -3.9693    3.2322    2.9662 H   0  0  0  0  0  0  0  0  0  0  0  0
   -2.4841    5.0788    3.6607 H   0  0  0  0  0  0  0  0  0  0  0  0
   -0.2401    5.2864    2.6528 H   0  0  0  0  0  0  0  0  0  0  0  0
    0.5206    3.6451    0.9901 H   0  0  0  0  0  0  0  0  0  0  0  0
   -0.7224    1.9767   -0.9287 H   0  0  0  0  0  0  0  0  0  0  0  0
    1.0004    1.3728    1.3234 H   0  0  0  0  0  0  0  0  0  0  0  0
    2.9459    2.2319    0.3669 H   0  0  0  0  0  0  0  0  0  0  0  0
    4.5859    2.3310   -1.4638 H   0  0  0  0  0  0  0  0  0  0  0  0
    4.1728    1.0982   -3.5612 H   0  0  0  0  0  0  0  0  0  0  0  0
    2.0873   -0.1984   -3.8315 H   0  0  0  0  0  0  0  0  0  0  0  0
    0.4563   -0.3013   -2.0136 H   0  0  0  0  0  0  0  0  0  0  0  0
    5.5670    0.8066    2.8655 H   0  0  0  0  0  0  0  0  0  0  0  0
    6.5741   -0.4800    2.1746 H   0  0  0  0  0  0  0  0  0  0  0  0
    6.1974    0.9446    1.2132 H   0  0  0  0  0  0  0  0  0  0  0  0
    2.8902    0.1512    2.7028 H   0  0  0  0  0  0  0  0  0  0  0  0
   -1.4041   -1.7202    0.3914 H   0  0  0  0  0  0  0  0  0  0  0  0
   -1.2761   -0.0201    3.9351 H   0  0  0  0  0  0  0  0  0  0  0  0
   -4.8019   -4.9681   -0.8135 H   0  0  0  0  0  0  0  0  0  0  0  0
   -6.2299   -3.9994   -1.1622 H   0  0  0  0  0  0  0  0  0  0  0  0
   -5.4770   -3.9113    0.4419 H   0  0  0  0  0  0  0  0  0  0  0  0
   -4.0242   -1.5921    0.6294 H   0  0  0  0  0  0  0  0  0  0  0  0
  1  2  4  0  0  0  0
  2  3  4  0  0  0  0
  3  4  4  0  0  0  0
  4  5  4  0  0  0  0
  1  6  4  0  0  0  0
  5  6  4  0  0  0  0
  6  7  1  0  0  0  0
  7  8  1  0  0  0  0
  8  9  1  0  0  0  0
  9 10  4  0  0  0  0
 10 11  4  0  0  0  0
 11 12  4  0  0  0  0
 12 13  4  0  0  0  0
  9 14  4  0  0  0  0
 13 14  4  0  0  0  0
  8 15  1  0  0  0  0
 15 16  4  0  0  0  0
 16 17  1  0  0  0  0
 17 18  2  0  0  0  0
 18 19  1  0  0  0  0
 19 20  1  0  0  0  0
 19 21  1  0  0  0  0
 19 22  1  0  0  0  0
 18 23  1  0  0  0  0
 23 24  1  0  0  0  0
 24 25  1  0  0  0  0
 17 26  4  0  0  0  0
 24 26  2  0  0  0  0
 16 27  2  0  0  0  0
 15 28  1  0  0  0  0
 28 29  1  0  0  0  0
 29 30  1  0  0  0  0
 29 31  2  0  0  0  0
  7 32  1  0  0  0  0
 28 32  1  0  0  0  0
 32 33  1  0  0  0  0
 33 34  1  0  0  0  0
 34 35  2  0  0  0  0
 35 36  1  0  0  0  0
 36 37  1  0  0  0  0
 36 38  1  0  0  0  0
 36 39  1  0  0  0  0
 35 40  1  0  0  0  0
 40 41  1  0  0  0  0
 41 42  1  0  0  0  0
 34 43  4  0  0  0  0
 41 43  2  0  0  0  0
 33 44  2  0  0  0  0
  1 45  1  0  0  0  0
  2 46  1  0  0  0  0
  3 47  1  0  0  0  0
  4 48  1  0  0  0  0
  5 49  1  0  0  0  0
  7 50  1  0  0  0  0
  8 51  1  0  0  0  0
 10 52  1  0  0  0  0
 11 53  1  0  0  0  0
 12 54  1  0  0  0  0
 13 55  1  0  0  0  0
 14 56  1  0  0  0  0
 25 57  1  0  0  0  0
 25 58  1  0  0  0  0
 25 59  1  0  0  0  0
 26 60  1  0  0  0  0
 28 61  1  0  0  0  0
 30 62  1  0  0  0  0
 42 63  1  0  0  0  0
 42 64  1  0  0  0  0
 42 65  1  0  0  0  0
 43 66  1  0  0  0  0
M  END
