
  xtb     03172200063D
 xtb: 6.3.3 (4ae9cef)
 78 84  0     0  0            999 V2000
    0.9050   -2.9028    0.0064 C   0  0  0  0  0  0  0  0  0  0  0  0
    1.8726   -3.7774    0.4088 C   0  0  0  0  0  0  0  0  0  0  0  0
    3.0302   -3.3211    1.0714 C   0  0  0  0  0  0  0  0  0  0  0  0
    4.0689   -4.1920    1.4585 C   0  0  0  0  0  0  0  0  0  0  0  0
    5.1807   -3.7132    2.0933 C   0  0  0  0  0  0  0  0  0  0  0  0
    5.3020   -2.3430    2.3747 C   0  0  0  0  0  0  0  0  0  0  0  0
    4.3106   -1.4739    2.0160 C   0  0  0  0  0  0  0  0  0  0  0  0
    3.1544   -1.9359    1.3536 C   0  0  0  0  0  0  0  0  0  0  0  0
    2.1308   -1.0621    0.9415 C   0  0  0  0  0  0  0  0  0  0  0  0
    1.0409   -1.5241    0.2504 C   0  0  0  0  0  0  0  0  0  0  0  0
   -0.0203   -0.5728   -0.2350 C   0  0  0  0  0  0  0  0  0  0  0  0
   -0.8556   -0.0124    0.9423 C   0  0  0  0  0  0  0  0  0  0  0  0
   -2.2342   -0.6243    0.9752 C   0  0  0  0  0  0  0  0  0  0  0  0
   -3.2753   -0.0942    0.2615 C   0  0  0  0  0  0  0  0  0  0  0  0
   -4.5477   -0.6997    0.2855 C   0  0  0  0  0  0  0  0  0  0  0  0
   -5.6378   -0.1599   -0.4284 C   0  0  0  0  0  0  0  0  0  0  0  0
   -6.8627   -0.7646   -0.3891 C   0  0  0  0  0  0  0  0  0  0  0  0
   -7.0526   -1.9356    0.3620 C   0  0  0  0  0  0  0  0  0  0  0  0
   -6.0147   -2.4834    1.0629 C   0  0  0  0  0  0  0  0  0  0  0  0
   -4.7390   -1.8828    1.0450 C   0  0  0  0  0  0  0  0  0  0  0  0
   -3.6440   -2.4137    1.7584 C   0  0  0  0  0  0  0  0  0  0  0  0
   -2.4253   -1.7995    1.7273 C   0  0  0  0  0  0  0  0  0  0  0  0
   -0.8501    1.4261    0.7400 N   0  0  0  0  0  0  0  0  0  0  0  0
   -1.4381    2.2586    1.6457 C   0  0  0  0  0  0  0  0  0  0  0  0
   -1.2955    3.7107    1.3226 C   0  0  0  0  0  0  0  0  0  0  0  0
   -2.3764    4.4202    0.8190 C   0  0  0  0  0  0  0  0  0  0  0  0
   -2.2404    5.7614    0.5126 C   0  0  0  0  0  0  0  0  0  0  0  0
   -1.0357    6.4229    0.7150 C   0  0  0  0  0  0  0  0  0  0  0  0
   -0.8804    7.8675    0.3506 C   0  0  0  0  0  0  0  0  0  0  0  0
    0.0325    5.7111    1.2475 C   0  0  0  0  0  0  0  0  0  0  0  0
   -0.0919    4.3680    1.5485 C   0  0  0  0  0  0  0  0  0  0  0  0
   -2.0052    1.8303    2.6265 O   0  0  0  0  0  0  0  0  0  0  0  0
   -0.1137    1.8295   -0.4203 C   0  0  0  0  0  0  0  0  0  0  0  0
   -1.0106    2.4518   -1.5359 C   0  0  0  0  0  0  0  0  0  0  0  0
   -0.3325    2.9763   -2.5338 O   0  0  0  0  0  0  0  0  0  0  0  0
   -2.2061    2.4545   -1.4707 O   0  0  0  0  0  0  0  0  0  0  0  0
    0.5288    0.6097   -0.8846 N   0  0  0  0  0  0  0  0  0  0  0  0
    1.5809    0.6845   -1.7238 C   0  0  0  0  0  0  0  0  0  0  0  0
    2.2475   -0.5863   -2.1017 C   0  0  0  0  0  0  0  0  0  0  0  0
    3.5904   -0.7720   -1.7933 C   0  0  0  0  0  0  0  0  0  0  0  0
    4.2152   -1.9595   -2.1145 C   0  0  0  0  0  0  0  0  0  0  0  0
    3.5285   -2.9693   -2.7799 C   0  0  0  0  0  0  0  0  0  0  0  0
    4.2186   -4.2540   -3.1162 C   0  0  0  0  0  0  0  0  0  0  0  0
    2.2047   -2.7497   -3.1373 C   0  0  0  0  0  0  0  0  0  0  0  0
    1.5630   -1.5732   -2.7986 C   0  0  0  0  0  0  0  0  0  0  0  0
    1.9578    1.7758   -2.1529 O   0  0  0  0  0  0  0  0  0  0  0  0
    0.0256   -3.2584   -0.5101 H   0  0  0  0  0  0  0  0  0  0  0  0
    1.7689   -4.8344    0.2126 H   0  0  0  0  0  0  0  0  0  0  0  0
    3.9694   -5.2460    1.2418 H   0  0  0  0  0  0  0  0  0  0  0  0
    5.9742   -4.3851    2.3853 H   0  0  0  0  0  0  0  0  0  0  0  0
    6.1873   -1.9829    2.8776 H   0  0  0  0  0  0  0  0  0  0  0  0
    4.4001   -0.4184    2.2296 H   0  0  0  0  0  0  0  0  0  0  0  0
    2.2360   -0.0062    1.1511 H   0  0  0  0  0  0  0  0  0  0  0  0
   -0.6916   -1.0893   -0.9342 H   0  0  0  0  0  0  0  0  0  0  0  0
   -0.3580   -0.2280    1.8984 H   0  0  0  0  0  0  0  0  0  0  0  0
   -3.1434    0.8052   -0.3213 H   0  0  0  0  0  0  0  0  0  0  0  0
   -5.4813    0.7417   -1.0027 H   0  0  0  0  0  0  0  0  0  0  0  0
   -7.6959   -0.3464   -0.9349 H   0  0  0  0  0  0  0  0  0  0  0  0
   -8.0282   -2.3994    0.3817 H   0  0  0  0  0  0  0  0  0  0  0  0
   -6.1569   -3.3840    1.6436 H   0  0  0  0  0  0  0  0  0  0  0  0
   -3.7883   -3.3139    2.3388 H   0  0  0  0  0  0  0  0  0  0  0  0
   -1.5923   -2.2074    2.2827 H   0  0  0  0  0  0  0  0  0  0  0  0
   -3.3143    3.9130    0.6557 H   0  0  0  0  0  0  0  0  0  0  0  0
   -3.0832    6.3027    0.1083 H   0  0  0  0  0  0  0  0  0  0  0  0
   -1.8403    8.3774    0.3655 H   0  0  0  0  0  0  0  0  0  0  0  0
   -0.4680    7.9522   -0.6554 H   0  0  0  0  0  0  0  0  0  0  0  0
   -0.2006    8.3699    1.0353 H   0  0  0  0  0  0  0  0  0  0  0  0
    0.9715    6.2146    1.4288 H   0  0  0  0  0  0  0  0  0  0  0  0
    0.7435    3.8311    1.9775 H   0  0  0  0  0  0  0  0  0  0  0  0
    0.6604    2.5802   -0.1789 H   0  0  0  0  0  0  0  0  0  0  0  0
    0.6429    2.7655   -2.4798 H   0  0  0  0  0  0  0  0  0  0  0  0
    4.1315    0.0092   -1.2813 H   0  0  0  0  0  0  0  0  0  0  0  0
    5.2502   -2.1088   -1.8440 H   0  0  0  0  0  0  0  0  0  0  0  0
    3.5018   -5.0187   -3.4035 H   0  0  0  0  0  0  0  0  0  0  0  0
    4.9085   -4.1021   -3.9463 H   0  0  0  0  0  0  0  0  0  0  0  0
    4.7954   -4.6095   -2.2645 H   0  0  0  0  0  0  0  0  0  0  0  0
    1.6640   -3.5119   -3.6793 H   0  0  0  0  0  0  0  0  0  0  0  0
    0.5330   -1.4181   -3.0850 H   0  0  0  0  0  0  0  0  0  0  0  0
  1  2  2  0  0  0  0
  2  3  4  0  0  0  0
  3  4  4  0  0  0  0
  4  5  2  0  0  0  0
  5  6  4  0  0  0  0
  6  7  2  0  0  0  0
  3  8  4  0  0  0  0
  7  8  4  0  0  0  0
  8  9  4  0  0  0  0
  1 10  4  0  0  0  0
  9 10  2  0  0  0  0
 10 11  1  0  0  0  0
 11 12  1  0  0  0  0
 12 13  1  0  0  0  0
 13 14  2  0  0  0  0
 14 15  4  0  0  0  0
 15 16  4  0  0  0  0
 16 17  2  0  0  0  0
 17 18  4  0  0  0  0
 18 19  2  0  0  0  0
 15 20  4  0  0  0  0
 19 20  4  0  0  0  0
 20 21  4  0  0  0  0
 13 22  4  0  0  0  0
 21 22  2  0  0  0  0
 12 23  1  0  0  0  0
 23 24  1  0  0  0  0
 24 25  1  0  0  0  0
 25 26  4  0  0  0  0
 26 27  4  0  0  0  0
 27 28  4  0  0  0  0
 28 29  1  0  0  0  0
 28 30  4  0  0  0  0
 25 31  4  0  0  0  0
 30 31  4  0  0  0  0
 24 32  2  0  0  0  0
 23 33  1  0  0  0  0
 33 34  1  0  0  0  0
 34 35  4  0  0  0  0
 34 36  2  0  0  0  0
 11 37  1  0  0  0  0
 33 37  1  0  0  0  0
 37 38  4  0  0  0  0
 38 39  1  0  0  0  0
 39 40  4  0  0  0  0
 40 41  4  0  0  0  0
 41 42  4  0  0  0  0
 42 43  1  0  0  0  0
 42 44  4  0  0  0  0
 39 45  4  0  0  0  0
 44 45  4  0  0  0  0
 38 46  2  0  0  0  0
  1 47  1  0  0  0  0
  2 48  1  0  0  0  0
  4 49  1  0  0  0  0
  5 50  1  0  0  0  0
  6 51  1  0  0  0  0
  7 52  1  0  0  0  0
  9 53  1  0  0  0  0
 11 54  1  0  0  0  0
 12 55  1  0  0  0  0
 14 56  1  0  0  0  0
 16 57  1  0  0  0  0
 17 58  1  0  0  0  0
 18 59  1  0  0  0  0
 19 60  1  0  0  0  0
 21 61  1  0  0  0  0
 22 62  1  0  0  0  0
 26 63  1  0  0  0  0
 27 64  1  0  0  0  0
 29 65  1  0  0  0  0
 29 66  1  0  0  0  0
 29 67  1  0  0  0  0
 30 68  1  0  0  0  0
 31 69  1  0  0  0  0
 33 70  1  0  0  0  0
 35 71  1  0  0  0  0
 40 72  1  0  0  0  0
 41 73  1  0  0  0  0
 43 74  1  0  0  0  0
 43 75  1  0  0  0  0
 43 76  1  0  0  0  0
 44 77  1  0  0  0  0
 45 78  1  0  0  0  0
M  END
