
  xtb     03162222413D
 xtb: 6.3.3 (4ae9cef)
 66 70  0     0  0            999 V2000
    0.8756   -3.0138    1.9636 C   0  0  0  0  0  0  0  0  0  0  0  0
    0.7507   -3.9930    0.8310 C   0  0  0  0  0  0  0  0  0  0  0  0
    0.8825   -5.2669    1.2191 F   0  0  0  0  0  0  0  0  0  0  0  0
    1.6555   -3.8132   -0.1485 F   0  0  0  0  0  0  0  0  0  0  0  0
   -0.4566   -3.9237    0.2197 F   0  0  0  0  0  0  0  0  0  0  0  0
    1.1287   -3.5014    3.2400 C   0  0  0  0  0  0  0  0  0  0  0  0
    1.2216   -2.6339    4.3105 C   0  0  0  0  0  0  0  0  0  0  0  0
    1.0516   -1.2747    4.1105 C   0  0  0  0  0  0  0  0  0  0  0  0
    0.7955   -0.7905    2.8436 C   0  0  0  0  0  0  0  0  0  0  0  0
    0.7166   -1.6454    1.7495 C   0  0  0  0  0  0  0  0  0  0  0  0
    0.4183   -1.0585    0.3950 C   0  0  0  0  0  0  0  0  0  0  0  0
   -1.0058   -0.4561    0.3327 C   0  0  0  0  0  0  0  0  0  0  0  0
   -1.9842   -1.3531   -0.3858 C   0  0  0  0  0  0  0  0  0  0  0  0
   -2.9801   -2.0741    0.2748 C   0  0  0  0  0  0  0  0  0  0  0  0
   -3.1398   -2.0017    1.7683 C   0  0  0  0  0  0  0  0  0  0  0  0
   -4.1305   -2.7779    2.2262 F   0  0  0  0  0  0  0  0  0  0  0  0
   -2.0306   -2.4075    2.4286 F   0  0  0  0  0  0  0  0  0  0  0  0
   -3.3999   -0.7676    2.2305 F   0  0  0  0  0  0  0  0  0  0  0  0
   -3.8489   -2.8904   -0.4391 C   0  0  0  0  0  0  0  0  0  0  0  0
   -3.7388   -2.9978   -1.8119 C   0  0  0  0  0  0  0  0  0  0  0  0
   -2.7534   -2.2903   -2.4767 C   0  0  0  0  0  0  0  0  0  0  0  0
   -1.8868   -1.4832   -1.7661 C   0  0  0  0  0  0  0  0  0  0  0  0
   -0.8165    0.8157   -0.3602 N   0  0  0  0  0  0  0  0  0  0  0  0
   -1.9112    1.5484   -0.7211 C   0  0  0  0  0  0  0  0  0  0  0  0
   -1.6922    2.8341   -1.4013 C   0  0  0  0  0  0  0  0  0  0  0  0
   -2.4121    3.2955   -2.4727 C   0  0  0  0  0  0  0  0  0  0  0  0
   -3.4496    2.5160   -3.2047 C   0  0  0  0  0  0  0  0  0  0  0  0
   -2.0140    4.6005   -2.8592 C   0  0  0  0  0  0  0  0  0  0  0  0
   -1.0401    5.1194   -2.0746 C   0  0  0  0  0  0  0  0  0  0  0  0
   -0.5532    4.0242   -0.8463 S   0  0  0  0  0  0  0  0  0  0  0  0
   -3.0279    1.1290   -0.4825 O   0  0  0  0  0  0  0  0  0  0  0  0
    0.5692    1.0294   -0.7067 C   0  0  0  0  0  0  0  0  0  0  0  0
    0.7753    0.7772   -2.2234 C   0  0  0  0  0  0  0  0  0  0  0  0
    1.5820   -0.2532   -2.4472 O   0  0  0  0  0  0  0  0  0  0  0  0
    0.2480    1.4209   -3.0852 O   0  0  0  0  0  0  0  0  0  0  0  0
    1.2759    0.0870    0.1068 N   0  0  0  0  0  0  0  0  0  0  0  0
    2.6029    0.0799    0.4199 C   0  0  0  0  0  0  0  0  0  0  0  0
    3.3810    1.2974    0.1136 C   0  0  0  0  0  0  0  0  0  0  0  0
    4.2734    1.8930    0.9695 C   0  0  0  0  0  0  0  0  0  0  0  0
    4.5259    1.4762    2.3784 C   0  0  0  0  0  0  0  0  0  0  0  0
    4.9195    3.0071    0.3758 C   0  0  0  0  0  0  0  0  0  0  0  0
    4.5465    3.2215   -0.9088 C   0  0  0  0  0  0  0  0  0  0  0  0
    3.3763    2.0846   -1.4391 S   0  0  0  0  0  0  0  0  0  0  0  0
    3.1081   -0.8610    1.0000 O   0  0  0  0  0  0  0  0  0  0  0  0
    1.2512   -4.5625    3.3906 H   0  0  0  0  0  0  0  0  0  0  0  0
    1.4221   -3.0200    5.2976 H   0  0  0  0  0  0  0  0  0  0  0  0
    1.1162   -0.5910    4.9434 H   0  0  0  0  0  0  0  0  0  0  0  0
    0.6686    0.2713    2.6894 H   0  0  0  0  0  0  0  0  0  0  0  0
    0.5428   -1.7997   -0.4014 H   0  0  0  0  0  0  0  0  0  0  0  0
   -1.3645   -0.2308    1.3418 H   0  0  0  0  0  0  0  0  0  0  0  0
   -4.6150   -3.4398    0.0849 H   0  0  0  0  0  0  0  0  0  0  0  0
   -4.4214   -3.6299   -2.3576 H   0  0  0  0  0  0  0  0  0  0  0  0
   -2.6592   -2.3644   -3.5494 H   0  0  0  0  0  0  0  0  0  0  0  0
   -1.1306   -0.9243   -2.2958 H   0  0  0  0  0  0  0  0  0  0  0  0
   -4.2765    3.1658   -3.4844 H   0  0  0  0  0  0  0  0  0  0  0  0
   -3.8240    1.7035   -2.5892 H   0  0  0  0  0  0  0  0  0  0  0  0
   -3.0169    2.1009   -4.1156 H   0  0  0  0  0  0  0  0  0  0  0  0
   -2.4532    5.1251   -3.6888 H   0  0  0  0  0  0  0  0  0  0  0  0
   -0.5729    6.0824   -2.1298 H   0  0  0  0  0  0  0  0  0  0  0  0
    0.8813    2.0595   -0.4923 H   0  0  0  0  0  0  0  0  0  0  0  0
    1.7257   -0.3971   -3.3972 H   0  0  0  0  0  0  0  0  0  0  0  0
    5.5977    1.4317    2.5610 H   0  0  0  0  0  0  0  0  0  0  0  0
    4.0971    2.2055    3.0661 H   0  0  0  0  0  0  0  0  0  0  0  0
    4.0944    0.4998    2.5748 H   0  0  0  0  0  0  0  0  0  0  0  0
    5.6410    3.6112    0.8959 H   0  0  0  0  0  0  0  0  0  0  0  0
    4.8879    3.9750   -1.5902 H   0  0  0  0  0  0  0  0  0  0  0  0
  1  2  1  0  0  0  0
  2  3  1  0  0  0  0
  2  4  1  0  0  0  0
  2  5  1  0  0  0  0
  1  6  4  0  0  0  0
  6  7  4  0  0  0  0
  7  8  4  0  0  0  0
  8  9  4  0  0  0  0
  1 10  4  0  0  0  0
  9 10  4  0  0  0  0
 10 11  1  0  0  0  0
 11 12  1  0  0  0  0
 12 13  1  0  0  0  0
 13 14  4  0  0  0  0
 14 15  1  0  0  0  0
 15 16  1  0  0  0  0
 15 17  1  0  0  0  0
 15 18  1  0  0  0  0
 14 19  4  0  0  0  0
 19 20  4  0  0  0  0
 20 21  4  0  0  0  0
 13 22  4  0  0  0  0
 21 22  4  0  0  0  0
 12 23  1  0  0  0  0
 23 24  1  0  0  0  0
 24 25  1  0  0  0  0
 25 26  2  0  0  0  0
 26 27  1  0  0  0  0
 26 28  4  0  0  0  0
 28 29  2  0  0  0  0
 25 30  1  0  0  0  0
 29 30  1  0  0  0  0
 24 31  2  0  0  0  0
 23 32  1  0  0  0  0
 32 33  1  0  0  0  0
 33 34  1  0  0  0  0
 33 35  2  0  0  0  0
 11 36  1  0  0  0  0
 32 36  1  0  0  0  0
 36 37  1  0  0  0  0
 37 38  1  0  0  0  0
 38 39  2  0  0  0  0
 39 40  1  0  0  0  0
 39 41  4  0  0  0  0
 41 42  2  0  0  0  0
 38 43  1  0  0  0  0
 42 43  1  0  0  0  0
 37 44  2  0  0  0  0
  6 45  1  0  0  0  0
  7 46  1  0  0  0  0
  8 47  1  0  0  0  0
  9 48  1  0  0  0  0
 11 49  1  0  0  0  0
 12 50  1  0  0  0  0
 19 51  1  0  0  0  0
 20 52  1  0  0  0  0
 21 53  1  0  0  0  0
 22 54  1  0  0  0  0
 27 55  1  0  0  0  0
 27 56  1  0  0  0  0
 27 57  1  0  0  0  0
 28 58  1  0  0  0  0
 29 59  1  0  0  0  0
 32 60  1  0  0  0  0
 34 61  1  0  0  0  0
 40 62  1  0  0  0  0
 40 63  1  0  0  0  0
 40 64  1  0  0  0  0
 41 65  1  0  0  0  0
 42 66  1  0  0  0  0
M  END
