72

C     -2.555183   -1.954843    0.217395
C     -3.415520   -2.906373   -0.335505
C     -3.466584   -3.105361   -1.721787
C     -4.325442   -4.059624   -2.289694
C     -4.361648   -4.248947   -3.672091
C     -3.543584   -3.485708   -4.501460
C     -2.688051   -2.529394   -3.950759
C     -2.637759   -2.326890   -2.560896
C     -1.782362   -1.366774   -1.988941
C     -1.729605   -1.167048   -0.599992
C     -0.808941   -0.149860    0.048838
C      0.691444   -0.549998    0.012553
C      1.156674   -1.180131    1.310389
C      1.659629   -2.492109    1.308000
C      2.052116   -3.130113    2.497922
C      2.541728   -4.447509    2.497524
C      2.911469   -5.071964    3.690086
C      2.801342   -4.387811    4.895690
C      2.322771   -3.077019    4.912740
C      1.944484   -2.435722    3.721897
C      1.456938   -1.121553    3.721950
C      1.066903   -0.502555    2.532863
N      1.362387    0.719316   -0.287179
C      2.724370    0.809347   -0.480676
C      3.334627    2.123560   -0.405136
C      3.135073    3.095412    0.566458
C      2.315043    3.143894    1.802987
F      1.003870    2.930151    1.520789
F      2.390396    4.333065    2.451409
F      2.685397    2.185131    2.685515
O      3.897454    4.197378    0.284578
C      4.612261    3.922233   -0.833854
C      4.323799    2.657444   -1.284810
O      3.346911   -0.174185   -0.873433
C      0.453177    1.547757   -1.071764
C      0.548951    1.299897   -2.622537
O      1.440777    0.372771   -3.046386
O     -0.162956    1.866617   -3.442405
N     -0.880791    1.170190   -0.603080
C     -1.612396    2.155702    0.059278
C     -2.057321    3.287582   -0.734688
C     -2.300464    4.551600   -0.213404
C     -2.159997    5.119613    1.154705
F     -2.313828    6.471499    1.171838
F     -3.074119    4.619237    2.023822
F     -0.928028    4.872538    1.672135
O     -2.744061    5.388111   -1.201009
C     -2.818921    4.658609   -2.340873
C     -2.419261    3.364973   -2.109140
O     -1.878554    2.090424    1.253117
H     -2.546741   -1.828379    1.300236
H     -4.049302   -3.489881    0.331182
H     -4.973309   -4.661387   -1.656890
H     -5.032296   -4.989764   -4.100965
H     -3.575591   -3.631429   -5.579401
H     -2.060620   -1.941196   -4.619057
H     -1.163494   -0.770684   -2.655460
H     -1.135637   -0.036723    1.088267
H      0.895988   -1.233301   -0.821902
H      1.742694   -3.034795    0.367355
H      2.634374   -5.002186    1.565844
H      3.284959   -6.092518    3.675314
H      3.089731   -4.873964    5.823722
H      2.240605   -2.560424    5.865478
H      1.372114   -0.565791    4.652341
H      0.677109    0.512068    2.581398
H      5.277451    4.708022   -1.170031
H      4.765474    2.173668   -2.147694
H      0.672070    2.607367   -0.903154
H      1.976817   -0.121521   -2.385810
H     -3.186131    5.183326   -3.212989
H     -2.420878    2.566932   -2.840765
