68

C      1.559165    3.268491   -1.613464
C      2.337407    4.335948   -2.069277
C      2.988638    5.172223   -1.161207
C      2.863861    4.937688    0.203926
C      2.086657    3.872208    0.659198
C      1.415576    3.020681   -0.239133
C      0.577625    1.874096    0.311962
C     -0.870584    1.817807   -0.254017
C     -1.876299    2.176557    0.833552
C     -2.428720    3.468154    0.862347
C     -3.327949    3.833357    1.867108
C     -3.682104    2.914959    2.857582
C     -3.137232    1.633001    2.846492
C     -2.235181    1.265825    1.844963
N     -1.011460    0.456433   -0.773495
C     -2.179417    0.026176   -1.377157
C     -2.302350   -1.392587   -1.790795
C     -2.236206   -2.451527   -0.869620
O     -2.030541   -2.123764    0.442966
C     -2.155519   -3.164835    1.405911
C     -2.383422   -3.759512   -1.344664
C     -2.624097   -3.999203   -2.703222
C     -2.724097   -2.942196   -3.602309
C     -2.568039   -1.637078   -3.146571
O     -3.122221    0.773766   -1.631623
C      0.278705   -0.215813   -0.841144
C      0.916214   -0.219784   -2.269690
O      0.150350    0.330524   -3.240942
O      2.026884   -0.637919   -2.570085
N      1.154353    0.560085    0.025521
C      2.219428    0.082286    0.762792
C      2.635773   -1.321351    0.598468
C      3.763480   -1.608146   -0.178025
C      4.176225   -2.932296   -0.332951
C      3.471061   -3.960712    0.295257
C      2.362486   -3.671302    1.099139
C      1.960776   -2.345753    1.269347
O      0.861854   -2.068961    2.039103
C      1.220748   -2.060195    3.426163
O      2.840730    0.754589    1.585268
H      1.060793    2.644640   -2.350051
H      2.433664    4.517957   -3.137040
H      3.595127    6.004703   -1.511365
H      3.374989    5.582633    0.917830
H      2.020226    3.692902    1.731847
H      0.551478    1.964143    1.407205
H     -1.014102    2.487332   -1.114574
H     -2.167822    4.194484    0.094617
H     -3.760428    4.833222    1.872630
H     -4.388340    3.198313    3.633892
H     -3.414798    0.916281    3.613467
H     -1.819724    0.261605    1.851833
H     -1.382085   -3.928379    1.267042
H     -2.014966   -2.725861    2.398797
H     -3.156757   -3.612169    1.374339
H     -2.326352   -4.622659   -0.686251
H     -2.744762   -5.021749   -3.057114
H     -2.927338   -3.133784   -4.651915
H     -2.656669   -0.807836   -3.845652
H      0.189503   -1.252844   -0.524246
H      0.737358    0.340929   -4.021811
H      4.308008   -0.805431   -0.671091
H      5.043016   -3.161111   -0.947805
H      3.791115   -4.993451    0.162436
H      1.819396   -4.477428    1.584332
H      1.427460   -3.077555    3.779687
H      2.082366   -1.410234    3.617152
H      0.367086   -1.670577    3.984135
