
  xtb     03172200203D
 xtb: 6.3.3 (4ae9cef)
 68 72  0     0  0            999 V2000
    1.3933    2.7090   -1.7568 C   0  0  0  0  0  0  0  0  0  0  0  0
    2.1096    3.5905   -2.5461 C   0  0  0  0  0  0  0  0  0  0  0  0
    2.7297    4.6897   -1.9766 C   0  0  0  0  0  0  0  0  0  0  0  0
    2.6320    4.9038   -0.6126 C   0  0  0  0  0  0  0  0  0  0  0  0
    1.9185    4.0215    0.1788 C   0  0  0  0  0  0  0  0  0  0  0  0
    1.2959    2.9182   -0.3871 C   0  0  0  0  0  0  0  0  0  0  0  0
    0.5124    1.9644    0.4792 C   0  0  0  0  0  0  0  0  0  0  0  0
   -0.9684    1.8446    0.0732 C   0  0  0  0  0  0  0  0  0  0  0  0
   -1.8860    1.9880    1.2667 C   0  0  0  0  0  0  0  0  0  0  0  0
   -1.9534    3.2248    1.8992 C   0  0  0  0  0  0  0  0  0  0  0  0
   -2.7651    3.4039    3.0035 C   0  0  0  0  0  0  0  0  0  0  0  0
   -3.5210    2.3482    3.4868 C   0  0  0  0  0  0  0  0  0  0  0  0
   -3.4616    1.1182    2.8568 C   0  0  0  0  0  0  0  0  0  0  0  0
   -2.6467    0.9353    1.7514 C   0  0  0  0  0  0  0  0  0  0  0  0
   -1.0553    0.5456   -0.5691 N   0  0  0  0  0  0  0  0  0  0  0  0
   -1.9929    0.3257   -1.5287 C   0  0  0  0  0  0  0  0  0  0  0  0
   -2.0432   -1.0440   -2.1188 C   0  0  0  0  0  0  0  0  0  0  0  0
   -2.2510   -2.1897   -1.3359 C   0  0  0  0  0  0  0  0  0  0  0  0
   -2.3631   -1.9995    0.0064 O   0  0  0  0  0  0  0  0  0  0  0  0
   -2.3520   -3.1309    0.8505 C   0  0  0  0  0  0  0  0  0  0  0  0
   -2.3346   -3.4285   -1.9605 C   0  0  0  0  0  0  0  0  0  0  0  0
   -2.2218   -3.5269   -3.3359 C   0  0  0  0  0  0  0  0  0  0  0  0
   -2.0413   -2.3968   -4.1130 C   0  0  0  0  0  0  0  0  0  0  0  0
   -1.9686   -1.1595   -3.5005 C   0  0  0  0  0  0  0  0  0  0  0  0
   -2.7310    1.2155   -1.9003 O   0  0  0  0  0  0  0  0  0  0  0  0
   -0.0007   -0.3273   -0.1227 C   0  0  0  0  0  0  0  0  0  0  0  0
    0.5583   -1.2132   -1.2505 C   0  0  0  0  0  0  0  0  0  0  0  0
    1.0250   -0.4931   -2.2652 O   0  0  0  0  0  0  0  0  0  0  0  0
    0.5989   -2.4121   -1.2180 O   0  0  0  0  0  0  0  0  0  0  0  0
    1.0026    0.5942    0.3721 N   0  0  0  0  0  0  0  0  0  0  0  0
    2.2465    0.2829    0.8064 C   0  0  0  0  0  0  0  0  0  0  0  0
    2.6088   -1.1649    0.6954 C   0  0  0  0  0  0  0  0  0  0  0  0
    3.6103   -1.5178   -0.2004 C   0  0  0  0  0  0  0  0  0  0  0  0
    3.9636   -2.8422   -0.3786 C   0  0  0  0  0  0  0  0  0  0  0  0
    3.3211   -3.8272    0.3514 C   0  0  0  0  0  0  0  0  0  0  0  0
    2.3509   -3.4857    1.2744 C   0  0  0  0  0  0  0  0  0  0  0  0
    1.9921   -2.1571    1.4625 C   0  0  0  0  0  0  0  0  0  0  0  0
    0.9744   -1.8864    2.3523 O   0  0  0  0  0  0  0  0  0  0  0  0
    1.2803   -1.0174    3.4271 C   0  0  0  0  0  0  0  0  0  0  0  0
    3.0088    1.1291    1.2317 O   0  0  0  0  0  0  0  0  0  0  0  0
    0.9139    1.8525   -2.2053 H   0  0  0  0  0  0  0  0  0  0  0  0
    2.1836    3.4186   -3.6100 H   0  0  0  0  0  0  0  0  0  0  0  0
    3.2902    5.3760   -2.5942 H   0  0  0  0  0  0  0  0  0  0  0  0
    3.1165    5.7576   -0.1624 H   0  0  0  0  0  0  0  0  0  0  0  0
    1.8540    4.1830    1.2447 H   0  0  0  0  0  0  0  0  0  0  0  0
    0.6071    2.2813    1.5258 H   0  0  0  0  0  0  0  0  0  0  0  0
   -1.2399    2.6048   -0.6693 H   0  0  0  0  0  0  0  0  0  0  0  0
   -1.3691    4.0493    1.5156 H   0  0  0  0  0  0  0  0  0  0  0  0
   -2.8121    4.3693    3.4855 H   0  0  0  0  0  0  0  0  0  0  0  0
   -4.1586    2.4878    4.3472 H   0  0  0  0  0  0  0  0  0  0  0  0
   -4.0559    0.2941    3.2239 H   0  0  0  0  0  0  0  0  0  0  0  0
   -2.6217   -0.0230    1.2568 H   0  0  0  0  0  0  0  0  0  0  0  0
   -1.4619   -3.7404    0.6722 H   0  0  0  0  0  0  0  0  0  0  0  0
   -2.3233   -2.7395    1.8665 H   0  0  0  0  0  0  0  0  0  0  0  0
   -3.2542   -3.7361    0.7217 H   0  0  0  0  0  0  0  0  0  0  0  0
   -2.4845   -4.3240   -1.3801 H   0  0  0  0  0  0  0  0  0  0  0  0
   -2.2831   -4.4997   -3.8006 H   0  0  0  0  0  0  0  0  0  0  0  0
   -1.9634   -2.4775   -5.1862 H   0  0  0  0  0  0  0  0  0  0  0  0
   -1.8399   -0.2597   -4.0835 H   0  0  0  0  0  0  0  0  0  0  0  0
   -0.3412   -0.9998    0.6843 H   0  0  0  0  0  0  0  0  0  0  0  0
    1.3852   -1.0668   -2.9610 H   0  0  0  0  0  0  0  0  0  0  0  0
    4.0932   -0.7352   -0.7675 H   0  0  0  0  0  0  0  0  0  0  0  0
    4.7329   -3.1041   -1.0889 H   0  0  0  0  0  0  0  0  0  0  0  0
    3.5830   -4.8648    0.2096 H   0  0  0  0  0  0  0  0  0  0  0  0
    1.8477   -4.2407    1.8582 H   0  0  0  0  0  0  0  0  0  0  0  0
    1.9530   -1.5104    4.1369 H   0  0  0  0  0  0  0  0  0  0  0  0
    1.7414   -0.0857    3.0953 H   0  0  0  0  0  0  0  0  0  0  0  0
    0.3320   -0.7995    3.9161 H   0  0  0  0  0  0  0  0  0  0  0  0
  1  2  4  0  0  0  0
  2  3  4  0  0  0  0
  3  4  4  0  0  0  0
  4  5  4  0  0  0  0
  1  6  4  0  0  0  0
  5  6  4  0  0  0  0
  6  7  1  0  0  0  0
  7  8  1  0  0  0  0
  8  9  1  0  0  0  0
  9 10  4  0  0  0  0
 10 11  4  0  0  0  0
 11 12  4  0  0  0  0
 12 13  4  0  0  0  0
  9 14  4  0  0  0  0
 13 14  4  0  0  0  0
  8 15  1  0  0  0  0
 15 16  4  0  0  0  0
 16 17  1  0  0  0  0
 17 18  4  0  0  0  0
 18 19  1  0  0  0  0
 19 20  1  0  0  0  0
 18 21  4  0  0  0  0
 21 22  4  0  0  0  0
 22 23  4  0  0  0  0
 17 24  4  0  0  0  0
 23 24  4  0  0  0  0
 16 25  2  0  0  0  0
 15 26  1  0  0  0  0
 26 27  1  0  0  0  0
 27 28  1  0  0  0  0
 27 29  2  0  0  0  0
  7 30  1  0  0  0  0
 26 30  1  0  0  0  0
 30 31  4  0  0  0  0
 31 32  1  0  0  0  0
 32 33  4  0  0  0  0
 33 34  4  0  0  0  0
 34 35  4  0  0  0  0
 35 36  4  0  0  0  0
 32 37  4  0  0  0  0
 36 37  4  0  0  0  0
 37 38  1  0  0  0  0
 38 39  1  0  0  0  0
 31 40  2  0  0  0  0
  1 41  1  0  0  0  0
  2 42  1  0  0  0  0
  3 43  1  0  0  0  0
  4 44  1  0  0  0  0
  5 45  1  0  0  0  0
  7 46  1  0  0  0  0
  8 47  1  0  0  0  0
 10 48  1  0  0  0  0
 11 49  1  0  0  0  0
 12 50  1  0  0  0  0
 13 51  1  0  0  0  0
 14 52  1  0  0  0  0
 20 53  1  0  0  0  0
 20 54  1  0  0  0  0
 20 55  1  0  0  0  0
 21 56  1  0  0  0  0
 22 57  1  0  0  0  0
 23 58  1  0  0  0  0
 24 59  1  0  0  0  0
 26 60  1  0  0  0  0
 28 61  1  0  0  0  0
 33 62  1  0  0  0  0
 34 63  1  0  0  0  0
 35 64  1  0  0  0  0
 36 65  1  0  0  0  0
 39 66  1  0  0  0  0
 39 67  1  0  0  0  0
 39 68  1  0  0  0  0
M  END
