
  xtb     03162221193D
 xtb: 6.3.3 (4ae9cef)
 78 84  0     0  0            999 V2000
    3.1844   -2.1964    2.6217 C   0  0  0  0  0  0  0  0  0  0  0  0
    3.1985   -3.2618    1.7685 C   0  0  0  0  0  0  0  0  0  0  0  0
    2.5559   -3.1667    0.5260 C   0  0  0  0  0  0  0  0  0  0  0  0
    1.9381   -2.0080    0.1482 C   0  0  0  0  0  0  0  0  0  0  0  0
    1.9294   -0.8743    0.9899 C   0  0  0  0  0  0  0  0  0  0  0  0
    2.5470   -0.9890    2.2666 C   0  0  0  0  0  0  0  0  0  0  0  0
    2.5103    0.0971    3.1635 C   0  0  0  0  0  0  0  0  0  0  0  0
    1.8781    1.2586    2.8227 C   0  0  0  0  0  0  0  0  0  0  0  0
    1.3027    1.3935    1.5551 C   0  0  0  0  0  0  0  0  0  0  0  0
    1.3471    0.3708    0.6370 C   0  0  0  0  0  0  0  0  0  0  0  0
    0.7579    0.6374   -0.7288 C   0  0  0  0  0  0  0  0  0  0  0  0
   -0.7767    0.8172   -0.6355 C   0  0  0  0  0  0  0  0  0  0  0  0
   -1.5511   -0.2424   -1.3830 C   0  0  0  0  0  0  0  0  0  0  0  0
   -1.6953   -0.1292   -2.7433 C   0  0  0  0  0  0  0  0  0  0  0  0
   -2.4874   -1.0260   -3.4703 C   0  0  0  0  0  0  0  0  0  0  0  0
   -3.1531   -2.0262   -2.8224 C   0  0  0  0  0  0  0  0  0  0  0  0
   -3.0078   -2.2003   -1.4311 C   0  0  0  0  0  0  0  0  0  0  0  0
   -2.1675   -1.3210   -0.6938 C   0  0  0  0  0  0  0  0  0  0  0  0
   -1.9954   -1.5712    0.6852 C   0  0  0  0  0  0  0  0  0  0  0  0
   -2.6532   -2.5965    1.3050 C   0  0  0  0  0  0  0  0  0  0  0  0
   -3.5169   -3.4323    0.5834 C   0  0  0  0  0  0  0  0  0  0  0  0
   -3.6806   -3.2418   -0.7585 C   0  0  0  0  0  0  0  0  0  0  0  0
   -1.0202    2.1468   -1.1653 N   0  0  0  0  0  0  0  0  0  0  0  0
   -2.1868    2.8273   -1.0286 C   0  0  0  0  0  0  0  0  0  0  0  0
   -3.2724    1.9934   -0.4192 C   0  0  0  0  0  0  0  0  0  0  0  0
   -3.3393    1.8032    0.9538 C   0  0  0  0  0  0  0  0  0  0  0  0
   -4.2877    0.9512    1.4909 C   0  0  0  0  0  0  0  0  0  0  0  0
   -5.1846    0.2777    0.6733 C   0  0  0  0  0  0  0  0  0  0  0  0
   -6.1750   -0.6916    1.2405 C   0  0  0  0  0  0  0  0  0  0  0  0
   -5.1391    0.5107   -0.6963 C   0  0  0  0  0  0  0  0  0  0  0  0
   -4.1969    1.3614   -1.2404 C   0  0  0  0  0  0  0  0  0  0  0  0
   -2.3128    3.9749   -1.3961 O   0  0  0  0  0  0  0  0  0  0  0  0
    0.1579    2.7299   -1.7631 C   0  0  0  0  0  0  0  0  0  0  0  0
    0.3262    4.2161   -1.3873 C   0  0  0  0  0  0  0  0  0  0  0  0
    0.3434    4.3741   -0.0603 O   0  0  0  0  0  0  0  0  0  0  0  0
    0.3854    5.1049   -2.1799 O   0  0  0  0  0  0  0  0  0  0  0  0
    1.2362    1.9000   -1.2727 N   0  0  0  0  0  0  0  0  0  0  0  0
    2.4936    2.3997   -1.1550 C   0  0  0  0  0  0  0  0  0  0  0  0
    3.5296    1.4170   -0.7251 C   0  0  0  0  0  0  0  0  0  0  0  0
    4.2969    1.6753    0.4039 C   0  0  0  0  0  0  0  0  0  0  0  0
    5.2359    0.7565    0.8298 C   0  0  0  0  0  0  0  0  0  0  0  0
    5.4532   -0.4206    0.1244 C   0  0  0  0  0  0  0  0  0  0  0  0
    6.4374   -1.4381    0.6114 C   0  0  0  0  0  0  0  0  0  0  0  0
    4.7243   -0.6425   -1.0376 C   0  0  0  0  0  0  0  0  0  0  0  0
    3.7702    0.2626   -1.4602 C   0  0  0  0  0  0  0  0  0  0  0  0
    2.7341    3.5641   -1.4059 O   0  0  0  0  0  0  0  0  0  0  0  0
    3.6591   -2.2605    3.5906 H   0  0  0  0  0  0  0  0  0  0  0  0
    3.6897   -4.1830    2.0460 H   0  0  0  0  0  0  0  0  0  0  0  0
    2.5500   -4.0212   -0.1344 H   0  0  0  0  0  0  0  0  0  0  0  0
    1.4367   -1.9756   -0.8066 H   0  0  0  0  0  0  0  0  0  0  0  0
    2.9861   -0.0105    4.1274 H   0  0  0  0  0  0  0  0  0  0  0  0
    1.8332    2.0859    3.5149 H   0  0  0  0  0  0  0  0  0  0  0  0
    0.8462    2.3349    1.2840 H   0  0  0  0  0  0  0  0  0  0  0  0
    0.9894   -0.1696   -1.4306 H   0  0  0  0  0  0  0  0  0  0  0  0
   -1.0786    0.8096    0.4151 H   0  0  0  0  0  0  0  0  0  0  0  0
   -1.2152    0.6845   -3.2663 H   0  0  0  0  0  0  0  0  0  0  0  0
   -2.5828   -0.9014   -4.5385 H   0  0  0  0  0  0  0  0  0  0  0  0
   -3.7956   -2.7037   -3.3657 H   0  0  0  0  0  0  0  0  0  0  0  0
   -1.3189   -0.9631    1.2654 H   0  0  0  0  0  0  0  0  0  0  0  0
   -2.5067   -2.7698    2.3604 H   0  0  0  0  0  0  0  0  0  0  0  0
   -4.0372   -4.2299    1.0930 H   0  0  0  0  0  0  0  0  0  0  0  0
   -4.3268   -3.8911   -1.3320 H   0  0  0  0  0  0  0  0  0  0  0  0
   -2.6471    2.3210    1.6029 H   0  0  0  0  0  0  0  0  0  0  0  0
   -4.3240    0.8018    2.5602 H   0  0  0  0  0  0  0  0  0  0  0  0
   -5.9221   -1.7035    0.9240 H   0  0  0  0  0  0  0  0  0  0  0  0
   -7.1785   -0.4694    0.8824 H   0  0  0  0  0  0  0  0  0  0  0  0
   -6.1747   -0.6598    2.3269 H   0  0  0  0  0  0  0  0  0  0  0  0
   -5.8442    0.0101   -1.3437 H   0  0  0  0  0  0  0  0  0  0  0  0
   -4.1661    1.5297   -2.3063 H   0  0  0  0  0  0  0  0  0  0  0  0
    0.1100    2.6957   -2.8672 H   0  0  0  0  0  0  0  0  0  0  0  0
    0.4384    5.3167    0.1471 H   0  0  0  0  0  0  0  0  0  0  0  0
    4.1358    2.5905    0.9530 H   0  0  0  0  0  0  0  0  0  0  0  0
    5.8101    0.9559    1.7229 H   0  0  0  0  0  0  0  0  0  0  0  0
    5.9211   -2.1824    1.2182 H   0  0  0  0  0  0  0  0  0  0  0  0
    7.2067   -0.9748    1.2237 H   0  0  0  0  0  0  0  0  0  0  0  0
    6.9095   -1.9527   -0.2218 H   0  0  0  0  0  0  0  0  0  0  0  0
    4.9025   -1.5390   -1.6137 H   0  0  0  0  0  0  0  0  0  0  0  0
    3.2200    0.0795   -2.3719 H   0  0  0  0  0  0  0  0  0  0  0  0
  1  2  2  0  0  0  0
  2  3  4  0  0  0  0
  3  4  2  0  0  0  0
  4  5  4  0  0  0  0
  1  6  4  0  0  0  0
  5  6  4  0  0  0  0
  6  7  4  0  0  0  0
  7  8  2  0  0  0  0
  8  9  4  0  0  0  0
  5 10  4  0  0  0  0
  9 10  2  0  0  0  0
 10 11  1  0  0  0  0
 11 12  1  0  0  0  0
 12 13  1  0  0  0  0
 13 14  2  0  0  0  0
 14 15  4  0  0  0  0
 15 16  2  0  0  0  0
 16 17  4  0  0  0  0
 13 18  4  0  0  0  0
 17 18  4  0  0  0  0
 18 19  4  0  0  0  0
 19 20  2  0  0  0  0
 20 21  4  0  0  0  0
 17 22  4  0  0  0  0
 21 22  2  0  0  0  0
 12 23  1  0  0  0  0
 23 24  4  0  0  0  0
 24 25  1  0  0  0  0
 25 26  4  0  0  0  0
 26 27  4  0  0  0  0
 27 28  4  0  0  0  0
 28 29  1  0  0  0  0
 28 30  4  0  0  0  0
 25 31  4  0  0  0  0
 30 31  4  0  0  0  0
 24 32  2  0  0  0  0
 23 33  1  0  0  0  0
 33 34  1  0  0  0  0
 34 35  1  0  0  0  0
 34 36  2  0  0  0  0
 11 37  1  0  0  0  0
 33 37  1  0  0  0  0
 37 38  4  0  0  0  0
 38 39  1  0  0  0  0
 39 40  4  0  0  0  0
 40 41  4  0  0  0  0
 41 42  4  0  0  0  0
 42 43  1  0  0  0  0
 42 44  4  0  0  0  0
 39 45  4  0  0  0  0
 44 45  4  0  0  0  0
 38 46  2  0  0  0  0
  1 47  1  0  0  0  0
  2 48  1  0  0  0  0
  3 49  1  0  0  0  0
  4 50  1  0  0  0  0
  7 51  1  0  0  0  0
  8 52  1  0  0  0  0
  9 53  1  0  0  0  0
 11 54  1  0  0  0  0
 12 55  1  0  0  0  0
 14 56  1  0  0  0  0
 15 57  1  0  0  0  0
 16 58  1  0  0  0  0
 19 59  1  0  0  0  0
 20 60  1  0  0  0  0
 21 61  1  0  0  0  0
 22 62  1  0  0  0  0
 26 63  1  0  0  0  0
 27 64  1  0  0  0  0
 29 65  1  0  0  0  0
 29 66  1  0  0  0  0
 29 67  1  0  0  0  0
 30 68  1  0  0  0  0
 31 69  1  0  0  0  0
 33 70  1  0  0  0  0
 35 71  1  0  0  0  0
 40 72  1  0  0  0  0
 41 73  1  0  0  0  0
 43 74  1  0  0  0  0
 43 75  1  0  0  0  0
 43 76  1  0  0  0  0
 44 77  1  0  0  0  0
 45 78  1  0  0  0  0
M  END
