72

C     -1.604227   -3.131786    0.642704
C     -2.469797   -4.024266    0.003496
C     -2.817722   -3.847397   -1.343433
C     -3.694864   -4.728546   -1.997081
C     -4.037992   -4.530517   -3.336061
C     -3.507620   -3.450640   -4.037758
C     -2.633754   -2.567566   -3.401909
C     -2.279970   -2.751895   -2.054273
C     -1.406738   -1.866391   -1.397725
C     -1.053284   -2.044832   -0.048444
C     -0.133741   -1.070763    0.687302
C      1.183319   -0.770055   -0.110258
C      2.455883   -0.806582    0.742044
C      2.676890   -1.861751    1.646829
C      3.837160   -1.932698    2.442130
C      4.034883   -2.973452    3.365350
C      5.190229   -3.027122    4.147785
C      6.164033   -2.041553    4.015025
C      5.984561   -1.002757    3.100920
C      4.826797   -0.936723    2.310054
C      4.635197    0.091739    1.380940
C      3.476349    0.145195    0.600592
N      0.898262    0.561070   -0.675033
C      1.312655    0.929331   -1.936414
C      0.802600    2.198757   -2.481367
C      1.505424    3.386226   -2.265128
C      0.989765    4.584591   -2.759411
C     -0.207623    4.585595   -3.481730
C     -0.890413    3.388422   -3.703506
Cl    -2.371849    3.397334   -4.575217
C     -0.391109    2.186616   -3.207406
O      2.039502    0.247432   -2.648629
C     -0.023323    1.282127    0.188507
C      0.820479    2.146473    1.177512
O      0.632045    1.855520    2.482589
O      1.636329    3.005842    0.866618
N     -0.791043    0.231517    0.834630
C     -1.888842    0.413399    1.647519
C     -2.635201    1.677948    1.502868
C     -3.305765    1.938634    0.303409
C     -3.990535    3.141512    0.160859
Cl    -4.780258    3.498894   -1.324264
C     -4.014313    4.071852    1.202180
C     -3.355912    3.794223    2.403511
C     -2.665960    2.592461    2.559369
O     -2.296447   -0.410720    2.456075
H     -1.384668   -3.281684    1.698794
H     -2.885497   -4.853201    0.574913
H     -4.119523   -5.577687   -1.464771
H     -4.719319   -5.219645   -3.829976
H     -3.775859   -3.291810   -5.080102
H     -2.228385   -1.732039   -3.969374
H     -1.004709   -1.024632   -1.954061
H      0.058939   -1.454373    1.694801
H      1.347354   -1.485146   -0.925497
H      1.940689   -2.658725    1.740183
H      3.286921   -3.753618    3.484484
H      5.328626   -3.836539    4.859808
H      7.064857   -2.082337    4.620903
H      6.758723   -0.244016    3.007392
H      5.393714    0.858619    1.241674
H      3.397444    0.946678   -0.129380
H      2.441914    3.382492   -1.711773
H      1.520052    5.520514   -2.584984
H     -0.603278    5.523458   -3.865441
H     -0.921084    1.255288   -3.383455
H     -0.680776    1.955711   -0.363690
H      1.314734    2.372144    2.959635
H     -3.305955    1.203091   -0.497060
H     -4.547972    5.013417    1.085213
H     -3.380314    4.520141    3.213468
H     -2.150690    2.369201    3.492528
