
  xtb     03172201293D
 xtb: 6.3.3 (4ae9cef)
 72 78  0     0  0            999 V2000
   -1.1275   -3.3534    0.3924 C   0  0  0  0  0  0  0  0  0  0  0  0
   -1.9070   -4.2186   -0.3204 C   0  0  0  0  0  0  0  0  0  0  0  0
   -2.5722   -3.7987   -1.4906 C   0  0  0  0  0  0  0  0  0  0  0  0
   -3.3864   -4.6658   -2.2480 C   0  0  0  0  0  0  0  0  0  0  0  0
   -4.0183   -4.2219   -3.3755 C   0  0  0  0  0  0  0  0  0  0  0  0
   -3.8672   -2.8911   -3.7967 C   0  0  0  0  0  0  0  0  0  0  0  0
   -3.0859   -2.0260   -3.0841 C   0  0  0  0  0  0  0  0  0  0  0  0
   -2.4186   -2.4540   -1.9174 C   0  0  0  0  0  0  0  0  0  0  0  0
   -1.6049   -1.5891   -1.1619 C   0  0  0  0  0  0  0  0  0  0  0  0
   -0.9692   -2.0207   -0.0267 C   0  0  0  0  0  0  0  0  0  0  0  0
   -0.0819   -1.0846    0.7544 C   0  0  0  0  0  0  0  0  0  0  0  0
    1.2447   -0.7953    0.0000 C   0  0  0  0  0  0  0  0  0  0  0  0
    2.4733   -0.8260    0.8783 C   0  0  0  0  0  0  0  0  0  0  0  0
    2.6855   -1.8731    1.7378 C   0  0  0  0  0  0  0  0  0  0  0  0
    3.8292   -1.9273    2.5585 C   0  0  0  0  0  0  0  0  0  0  0  0
    4.0607   -2.9968    3.4493 C   0  0  0  0  0  0  0  0  0  0  0  0
    5.1786   -3.0201    4.2347 C   0  0  0  0  0  0  0  0  0  0  0  0
    6.1156   -1.9764    4.1680 C   0  0  0  0  0  0  0  0  0  0  0  0
    5.9212   -0.9277    3.3136 C   0  0  0  0  0  0  0  0  0  0  0  0
    4.7799   -0.8760    2.4869 C   0  0  0  0  0  0  0  0  0  0  0  0
    4.5550    0.1740    1.5736 C   0  0  0  0  0  0  0  0  0  0  0  0
    3.4390    0.1950    0.7860 C   0  0  0  0  0  0  0  0  0  0  0  0
    1.0085    0.5136   -0.5933 N   0  0  0  0  0  0  0  0  0  0  0  0
    1.0404    0.6625   -1.9562 C   0  0  0  0  0  0  0  0  0  0  0  0
    0.4174    1.9128   -2.4837 C   0  0  0  0  0  0  0  0  0  0  0  0
    0.7537    3.1806   -2.0182 C   0  0  0  0  0  0  0  0  0  0  0  0
    0.1253    4.2936   -2.5502 C   0  0  0  0  0  0  0  0  0  0  0  0
   -0.8411    4.1582   -3.5319 C   0  0  0  0  0  0  0  0  0  0  0  0
   -1.1613    2.8920   -3.9981 C   0  0  0  0  0  0  0  0  0  0  0  0
   -2.3668    2.7092   -5.2210 Cl  0  0  0  0  0  0  0  0  0  0  0  0
   -0.5304    1.7689   -3.4912 C   0  0  0  0  0  0  0  0  0  0  0  0
    1.5351   -0.1797   -2.6710 O   0  0  0  0  0  0  0  0  0  0  0  0
    0.1566    1.2479    0.3049 C   0  0  0  0  0  0  0  0  0  0  0  0
    1.0117    1.9468    1.3851 C   0  0  0  0  0  0  0  0  0  0  0  0
    0.9419    1.3406    2.5612 O   0  0  0  0  0  0  0  0  0  0  0  0
    1.6542    2.9372    1.1735 O   0  0  0  0  0  0  0  0  0  0  0  0
   -0.6986    0.2332    0.8634 N   0  0  0  0  0  0  0  0  0  0  0  0
   -1.9098    0.4184    1.4445 C   0  0  0  0  0  0  0  0  0  0  0  0
   -2.4436    1.8131    1.2890 C   0  0  0  0  0  0  0  0  0  0  0  0
   -2.8057    2.2627    0.0237 C   0  0  0  0  0  0  0  0  0  0  0  0
   -3.2937    3.5492   -0.1274 C   0  0  0  0  0  0  0  0  0  0  0  0
   -3.7136    4.1099   -1.7055 Cl  0  0  0  0  0  0  0  0  0  0  0  0
   -3.4371    4.3888    0.9668 C   0  0  0  0  0  0  0  0  0  0  0  0
   -3.0970    3.9234    2.2248 C   0  0  0  0  0  0  0  0  0  0  0  0
   -2.6018    2.6406    2.3912 C   0  0  0  0  0  0  0  0  0  0  0  0
   -2.5065   -0.4683    2.0120 O   0  0  0  0  0  0  0  0  0  0  0  0
   -0.6315   -3.6823    1.2938 H   0  0  0  0  0  0  0  0  0  0  0  0
   -2.0294   -5.2409    0.0074 H   0  0  0  0  0  0  0  0  0  0  0  0
   -3.5013   -5.6887   -1.9189 H   0  0  0  0  0  0  0  0  0  0  0  0
   -4.6405   -4.8912   -3.9515 H   0  0  0  0  0  0  0  0  0  0  0  0
   -4.3754   -2.5577   -4.6896 H   0  0  0  0  0  0  0  0  0  0  0  0
   -2.9701   -1.0001   -3.4047 H   0  0  0  0  0  0  0  0  0  0  0  0
   -1.4936   -0.5666   -1.4977 H   0  0  0  0  0  0  0  0  0  0  0  0
    0.0998   -1.4830    1.7570 H   0  0  0  0  0  0  0  0  0  0  0  0
    1.3851   -1.5057   -0.8249 H   0  0  0  0  0  0  0  0  0  0  0  0
    1.9804   -2.6902    1.7901 H   0  0  0  0  0  0  0  0  0  0  0  0
    3.3372   -3.7979    3.4977 H   0  0  0  0  0  0  0  0  0  0  0  0
    5.3510   -3.8428    4.9129 H   0  0  0  0  0  0  0  0  0  0  0  0
    6.9929   -2.0121    4.7970 H   0  0  0  0  0  0  0  0  0  0  0  0
    6.6409   -0.1236    3.2553 H   0  0  0  0  0  0  0  0  0  0  0  0
    5.2879    0.9640    1.4971 H   0  0  0  0  0  0  0  0  0  0  0  0
    3.2966    0.9939    0.0743 H   0  0  0  0  0  0  0  0  0  0  0  0
    1.5025    3.2975   -1.2499 H   0  0  0  0  0  0  0  0  0  0  0  0
    0.3862    5.2769   -2.1906 H   0  0  0  0  0  0  0  0  0  0  0  0
   -1.3409    5.0239   -3.9366 H   0  0  0  0  0  0  0  0  0  0  0  0
   -0.7657    0.7853   -3.8687 H   0  0  0  0  0  0  0  0  0  0  0  0
   -0.3986    2.0324   -0.2209 H   0  0  0  0  0  0  0  0  0  0  0  0
    1.5046    1.7823    3.2184 H   0  0  0  0  0  0  0  0  0  0  0  0
   -2.7240    1.6134   -0.8354 H   0  0  0  0  0  0  0  0  0  0  0  0
   -3.8172    5.3889    0.8316 H   0  0  0  0  0  0  0  0  0  0  0  0
   -3.2197    4.5684    3.0813 H   0  0  0  0  0  0  0  0  0  0  0  0
   -2.3386    2.2739    3.3712 H   0  0  0  0  0  0  0  0  0  0  0  0
  1  2  2  0  0  0  0
  2  3  4  0  0  0  0
  3  4  4  0  0  0  0
  4  5  2  0  0  0  0
  5  6  4  0  0  0  0
  6  7  2  0  0  0  0
  3  8  4  0  0  0  0
  7  8  4  0  0  0  0
  8  9  4  0  0  0  0
  1 10  4  0  0  0  0
  9 10  2  0  0  0  0
 10 11  1  0  0  0  0
 11 12  1  0  0  0  0
 12 13  1  0  0  0  0
 13 14  2  0  0  0  0
 14 15  4  0  0  0  0
 15 16  4  0  0  0  0
 16 17  2  0  0  0  0
 17 18  4  0  0  0  0
 18 19  2  0  0  0  0
 15 20  4  0  0  0  0
 19 20  4  0  0  0  0
 20 21  4  0  0  0  0
 13 22  4  0  0  0  0
 21 22  2  0  0  0  0
 12 23  1  0  0  0  0
 23 24  1  0  0  0  0
 24 25  1  0  0  0  0
 25 26  4  0  0  0  0
 26 27  4  0  0  0  0
 27 28  4  0  0  0  0
 28 29  4  0  0  0  0
 29 30  1  0  0  0  0
 25 31  4  0  0  0  0
 29 31  4  0  0  0  0
 24 32  2  0  0  0  0
 23 33  1  0  0  0  0
 33 34  1  0  0  0  0
 34 35  1  0  0  0  0
 34 36  2  0  0  0  0
 11 37  1  0  0  0  0
 33 37  1  0  0  0  0
 37 38  4  0  0  0  0
 38 39  1  0  0  0  0
 39 40  4  0  0  0  0
 40 41  4  0  0  0  0
 41 42  1  0  0  0  0
 41 43  4  0  0  0  0
 43 44  4  0  0  0  0
 39 45  4  0  0  0  0
 44 45  4  0  0  0  0
 38 46  2  0  0  0  0
  1 47  1  0  0  0  0
  2 48  1  0  0  0  0
  4 49  1  0  0  0  0
  5 50  1  0  0  0  0
  6 51  1  0  0  0  0
  7 52  1  0  0  0  0
  9 53  1  0  0  0  0
 11 54  1  0  0  0  0
 12 55  1  0  0  0  0
 14 56  1  0  0  0  0
 16 57  1  0  0  0  0
 17 58  1  0  0  0  0
 18 59  1  0  0  0  0
 19 60  1  0  0  0  0
 21 61  1  0  0  0  0
 22 62  1  0  0  0  0
 26 63  1  0  0  0  0
 27 64  1  0  0  0  0
 28 65  1  0  0  0  0
 31 66  1  0  0  0  0
 33 67  1  0  0  0  0
 35 68  1  0  0  0  0
 40 69  1  0  0  0  0
 43 70  1  0  0  0  0
 44 71  1  0  0  0  0
 45 72  1  0  0  0  0
M  END
