24

C     -2.982753    1.957407    0.244242
C     -2.387507    0.806129    0.580718
C     -2.160587   -0.333043   -0.372497
C     -0.679496   -0.577337   -0.682956
C      0.113083   -1.105256    0.519213
C      1.575553   -1.417528    0.179924
C      2.563779   -0.298477    0.521871
C      2.353413    0.987434   -0.258223
H     -3.336264    2.144458   -0.764945
H     -3.127476    2.743063    0.979494
H     -2.059335    0.667632    1.608604
H     -2.684099   -0.140172   -1.317403
H     -2.609180   -1.240619    0.048755
H     -0.620630   -1.315175   -1.493227
H     -0.231570    0.343997   -1.068720
H      0.063755   -0.408733    1.363058
H     -0.364665   -2.035427    0.852923
H      1.678934   -1.701838   -0.873940
H      1.874990   -2.296787    0.765044
H      2.518396   -0.080677    1.595541
H      3.577955   -0.664481    0.320549
H      2.323236    0.796407   -1.335336
H      3.174813    1.684037   -0.061126
H      1.425653    1.484988    0.038388
