
  xtb     03162222053D
 xtb: 6.3.3 (4ae9cef)
 86 94  0     0  0            999 V2000
   -2.0915   -5.4754   -2.9241 C   0  0  0  0  0  0  0  0  0  0  0  0
   -2.4263   -6.3041   -1.8926 C   0  0  0  0  0  0  0  0  0  0  0  0
   -2.2330   -5.8776   -0.5714 C   0  0  0  0  0  0  0  0  0  0  0  0
   -1.7116   -4.6428   -0.3047 C   0  0  0  0  0  0  0  0  0  0  0  0
   -1.3470   -3.7576   -1.3436 C   0  0  0  0  0  0  0  0  0  0  0  0
   -1.5472   -4.1960   -2.6833 C   0  0  0  0  0  0  0  0  0  0  0  0
   -1.1942   -3.3560   -3.7590 C   0  0  0  0  0  0  0  0  0  0  0  0
   -0.6459   -2.1279   -3.5288 C   0  0  0  0  0  0  0  0  0  0  0  0
   -0.4342   -1.6923   -2.2153 C   0  0  0  0  0  0  0  0  0  0  0  0
   -0.7791   -2.4699   -1.1374 C   0  0  0  0  0  0  0  0  0  0  0  0
   -0.5181   -1.9227    0.2469 C   0  0  0  0  0  0  0  0  0  0  0  0
    0.9801   -1.7609    0.5741 C   0  0  0  0  0  0  0  0  0  0  0  0
    1.3535   -2.5206    1.8280 C   0  0  0  0  0  0  0  0  0  0  0  0
    1.5101   -1.8659    3.0218 C   0  0  0  0  0  0  0  0  0  0  0  0
    1.8138   -2.5608    4.2007 C   0  0  0  0  0  0  0  0  0  0  0  0
    1.9391   -3.9193    4.1824 C   0  0  0  0  0  0  0  0  0  0  0  0
    1.7798   -4.6362    2.9783 C   0  0  0  0  0  0  0  0  0  0  0  0
    1.4955   -3.9342    1.7749 C   0  0  0  0  0  0  0  0  0  0  0  0
    1.3615   -4.6823    0.5848 C   0  0  0  0  0  0  0  0  0  0  0  0
    1.4729   -6.0451    0.5909 C   0  0  0  0  0  0  0  0  0  0  0  0
    1.7357   -6.7352    1.7825 C   0  0  0  0  0  0  0  0  0  0  0  0
    1.8940   -6.0420    2.9487 C   0  0  0  0  0  0  0  0  0  0  0  0
    1.1775   -0.3260    0.7211 N   0  0  0  0  0  0  0  0  0  0  0  0
    2.4327    0.1746    0.5110 C   0  0  0  0  0  0  0  0  0  0  0  0
    2.6021    1.6298    0.6904 C   0  0  0  0  0  0  0  0  0  0  0  0
    2.0315    2.5654    1.5235 C   0  0  0  0  0  0  0  0  0  0  0  0
    2.7235    3.7675    1.3004 C   0  0  0  0  0  0  0  0  0  0  0  0
    3.6823    3.4938    0.3488 C   0  0  0  0  0  0  0  0  0  0  0  0
    4.6903    4.3347   -0.2682 C   0  0  0  0  0  0  0  0  0  0  0  0
    4.7588    5.7000    0.0136 C   0  0  0  0  0  0  0  0  0  0  0  0
    5.7339    6.4827   -0.5732 C   0  0  0  0  0  0  0  0  0  0  0  0
    6.6512    5.9198   -1.4464 C   0  0  0  0  0  0  0  0  0  0  0  0
    6.5883    4.5655   -1.7330 C   0  0  0  0  0  0  0  0  0  0  0  0
    5.6167    3.7756   -1.1506 C   0  0  0  0  0  0  0  0  0  0  0  0
    3.6050    2.2001   -0.0039 O   0  0  0  0  0  0  0  0  0  0  0  0
    3.3645   -0.5533    0.2409 O   0  0  0  0  0  0  0  0  0  0  0  0
   -0.0549    0.4134    0.7354 C   0  0  0  0  0  0  0  0  0  0  0  0
   -0.0458    1.5283   -0.3358 C   0  0  0  0  0  0  0  0  0  0  0  0
   -0.6066    2.6480    0.1092 O   0  0  0  0  0  0  0  0  0  0  0  0
    0.3824    1.3925   -1.4456 O   0  0  0  0  0  0  0  0  0  0  0  0
   -1.0605   -0.5769    0.4202 N   0  0  0  0  0  0  0  0  0  0  0  0
   -2.4021   -0.3850    0.3279 C   0  0  0  0  0  0  0  0  0  0  0  0
   -2.8847    0.9712    0.7059 C   0  0  0  0  0  0  0  0  0  0  0  0
   -2.8542    1.6314    1.9062 C   0  0  0  0  0  0  0  0  0  0  0  0
   -3.5810    2.8225    1.7179 C   0  0  0  0  0  0  0  0  0  0  0  0
   -4.0135    2.8125    0.4127 C   0  0  0  0  0  0  0  0  0  0  0  0
   -4.8026    3.7602   -0.3504 C   0  0  0  0  0  0  0  0  0  0  0  0
   -5.2337    4.9599    0.2182 C   0  0  0  0  0  0  0  0  0  0  0  0
   -6.0018    5.8418   -0.5167 C   0  0  0  0  0  0  0  0  0  0  0  0
   -6.3499    5.5458   -1.8251 C   0  0  0  0  0  0  0  0  0  0  0  0
   -5.9220    4.3594   -2.3990 C   0  0  0  0  0  0  0  0  0  0  0  0
   -5.1542    3.4721   -1.6706 C   0  0  0  0  0  0  0  0  0  0  0  0
   -3.5920    1.6792   -0.1912 O   0  0  0  0  0  0  0  0  0  0  0  0
   -3.1565   -1.2753    0.0013 O   0  0  0  0  0  0  0  0  0  0  0  0
   -2.2352   -5.7865   -3.9493 H   0  0  0  0  0  0  0  0  0  0  0  0
   -2.8396   -7.2835   -2.0844 H   0  0  0  0  0  0  0  0  0  0  0  0
   -2.4999   -6.5354    0.2428 H   0  0  0  0  0  0  0  0  0  0  0  0
   -1.5778   -4.3573    0.7267 H   0  0  0  0  0  0  0  0  0  0  0  0
   -1.3639   -3.7066   -4.7671 H   0  0  0  0  0  0  0  0  0  0  0  0
   -0.3691   -1.4818   -4.3483 H   0  0  0  0  0  0  0  0  0  0  0  0
    0.0069   -0.7196   -2.0606 H   0  0  0  0  0  0  0  0  0  0  0  0
   -1.0019   -2.5558    0.9964 H   0  0  0  0  0  0  0  0  0  0  0  0
    1.6148   -2.0941   -0.2550 H   0  0  0  0  0  0  0  0  0  0  0  0
    1.4109   -0.7912    3.0648 H   0  0  0  0  0  0  0  0  0  0  0  0
    1.9411   -2.0086    5.1201 H   0  0  0  0  0  0  0  0  0  0  0  0
    2.1622   -4.4662    5.0872 H   0  0  0  0  0  0  0  0  0  0  0  0
    1.1664   -4.1785   -0.3476 H   0  0  0  0  0  0  0  0  0  0  0  0
    1.3568   -6.5968   -0.3302 H   0  0  0  0  0  0  0  0  0  0  0  0
    1.8186   -7.8120    1.7690 H   0  0  0  0  0  0  0  0  0  0  0  0
    2.1086   -6.5599    3.8727 H   0  0  0  0  0  0  0  0  0  0  0  0
    1.2386    2.4209    2.2281 H   0  0  0  0  0  0  0  0  0  0  0  0
    2.5403    4.7025    1.7883 H   0  0  0  0  0  0  0  0  0  0  0  0
    4.0471    6.1450    0.6915 H   0  0  0  0  0  0  0  0  0  0  0  0
    5.7803    7.5383   -0.3490 H   0  0  0  0  0  0  0  0  0  0  0  0
    7.4127    6.5356   -1.9012 H   0  0  0  0  0  0  0  0  0  0  0  0
    7.3020    4.1237   -2.4125 H   0  0  0  0  0  0  0  0  0  0  0  0
    5.5647    2.7197   -1.3664 H   0  0  0  0  0  0  0  0  0  0  0  0
   -0.2610    0.8739    1.7148 H   0  0  0  0  0  0  0  0  0  0  0  0
   -0.6297    3.3281   -0.5851 H   0  0  0  0  0  0  0  0  0  0  0  0
   -2.3940    1.2964    2.8140 H   0  0  0  0  0  0  0  0  0  0  0  0
   -3.7602    3.5772    2.4551 H   0  0  0  0  0  0  0  0  0  0  0  0
   -4.9684    5.1962    1.2368 H   0  0  0  0  0  0  0  0  0  0  0  0
   -6.3346    6.7655   -0.0664 H   0  0  0  0  0  0  0  0  0  0  0  0
   -6.9543    6.2361   -2.3943 H   0  0  0  0  0  0  0  0  0  0  0  0
   -6.1906    4.1245   -3.4183 H   0  0  0  0  0  0  0  0  0  0  0  0
   -4.8246    2.5439   -2.1118 H   0  0  0  0  0  0  0  0  0  0  0  0
  1  2  2  0  0  0  0
  2  3  4  0  0  0  0
  3  4  2  0  0  0  0
  4  5  4  0  0  0  0
  1  6  4  0  0  0  0
  5  6  4  0  0  0  0
  6  7  4  0  0  0  0
  7  8  2  0  0  0  0
  8  9  4  0  0  0  0
  5 10  4  0  0  0  0
  9 10  2  0  0  0  0
 10 11  1  0  0  0  0
 11 12  1  0  0  0  0
 12 13  1  0  0  0  0
 13 14  2  0  0  0  0
 14 15  4  0  0  0  0
 15 16  2  0  0  0  0
 16 17  4  0  0  0  0
 13 18  4  0  0  0  0
 17 18  4  0  0  0  0
 18 19  4  0  0  0  0
 19 20  2  0  0  0  0
 20 21  4  0  0  0  0
 17 22  4  0  0  0  0
 21 22  2  0  0  0  0
 12 23  1  0  0  0  0
 23 24  1  0  0  0  0
 24 25  1  0  0  0  0
 25 26  4  0  0  0  0
 26 27  4  0  0  0  0
 27 28  4  0  0  0  0
 28 29  1  0  0  0  0
 29 30  4  0  0  0  0
 30 31  4  0  0  0  0
 31 32  4  0  0  0  0
 32 33  4  0  0  0  0
 29 34  4  0  0  0  0
 33 34  4  0  0  0  0
 25 35  1  0  0  0  0
 28 35  1  0  0  0  0
 24 36  2  0  0  0  0
 23 37  1  0  0  0  0
 37 38  1  0  0  0  0
 38 39  1  0  0  0  0
 38 40  2  0  0  0  0
 11 41  1  0  0  0  0
 37 41  1  0  0  0  0
 41 42  4  0  0  0  0
 42 43  1  0  0  0  0
 43 44  2  0  0  0  0
 44 45  4  0  0  0  0
 45 46  2  0  0  0  0
 46 47  1  0  0  0  0
 47 48  4  0  0  0  0
 48 49  4  0  0  0  0
 49 50  4  0  0  0  0
 50 51  4  0  0  0  0
 47 52  4  0  0  0  0
 51 52  4  0  0  0  0
 43 53  1  0  0  0  0
 46 53  1  0  0  0  0
 42 54  2  0  0  0  0
  1 55  1  0  0  0  0
  2 56  1  0  0  0  0
  3 57  1  0  0  0  0
  4 58  1  0  0  0  0
  7 59  1  0  0  0  0
  8 60  1  0  0  0  0
  9 61  1  0  0  0  0
 11 62  1  0  0  0  0
 12 63  1  0  0  0  0
 14 64  1  0  0  0  0
 15 65  1  0  0  0  0
 16 66  1  0  0  0  0
 19 67  1  0  0  0  0
 20 68  1  0  0  0  0
 21 69  1  0  0  0  0
 22 70  1  0  0  0  0
 26 71  1  0  0  0  0
 27 72  1  0  0  0  0
 30 73  1  0  0  0  0
 31 74  1  0  0  0  0
 32 75  1  0  0  0  0
 33 76  1  0  0  0  0
 34 77  1  0  0  0  0
 37 78  1  0  0  0  0
 39 79  1  0  0  0  0
 44 80  1  0  0  0  0
 45 81  1  0  0  0  0
 48 82  1  0  0  0  0
 49 83  1  0  0  0  0
 50 84  1  0  0  0  0
 51 85  1  0  0  0  0
 52 86  1  0  0  0  0
M  END
