
  xtb     03162223573D
 xtb: 6.3.3 (4ae9cef)
 74 78  0     0  0            999 V2000
   -2.1125   -1.1763   -0.9259 C   0  0  0  0  0  0  0  0  0  0  0  0
   -1.5082   -0.3560   -1.8298 O   0  0  0  0  0  0  0  0  0  0  0  0
   -2.0298   -0.2890   -3.1365 C   0  0  0  0  0  0  0  0  0  0  0  0
   -3.2117   -1.9785   -1.2061 C   0  0  0  0  0  0  0  0  0  0  0  0
   -3.7672   -2.7724   -0.2171 C   0  0  0  0  0  0  0  0  0  0  0  0
   -3.2315   -2.7832    1.0561 C   0  0  0  0  0  0  0  0  0  0  0  0
   -2.1378   -1.9840    1.3404 C   0  0  0  0  0  0  0  0  0  0  0  0
   -1.5760   -1.1712    0.3716 C   0  0  0  0  0  0  0  0  0  0  0  0
   -0.3736   -0.3282    0.6972 C   0  0  0  0  0  0  0  0  0  0  0  0
    0.8828   -0.8434   -0.0348 C   0  0  0  0  0  0  0  0  0  0  0  0
    1.7588   -1.6810    0.8570 C   0  0  0  0  0  0  0  0  0  0  0  0
    2.5857   -1.0967    1.8006 C   0  0  0  0  0  0  0  0  0  0  0  0
    3.3976   -1.8755    2.6076 C   0  0  0  0  0  0  0  0  0  0  0  0
    3.3764   -3.2499    2.4682 C   0  0  0  0  0  0  0  0  0  0  0  0
    2.5391   -3.8525    1.5439 C   0  0  0  0  0  0  0  0  0  0  0  0
    1.7174   -3.0769    0.7349 C   0  0  0  0  0  0  0  0  0  0  0  0
    0.8396   -3.5755   -0.1809 O   0  0  0  0  0  0  0  0  0  0  0  0
    0.8132   -4.9645   -0.4019 C   0  0  0  0  0  0  0  0  0  0  0  0
    1.5518    0.3641   -0.5007 N   0  0  0  0  0  0  0  0  0  0  0  0
    2.6281    0.2622   -1.3174 C   0  0  0  0  0  0  0  0  0  0  0  0
    3.1993    1.5816   -1.7489 C   0  0  0  0  0  0  0  0  0  0  0  0
    3.0217    2.0382   -3.0491 C   0  0  0  0  0  0  0  0  0  0  0  0
    3.5678    3.2466   -3.4450 C   0  0  0  0  0  0  0  0  0  0  0  0
    4.2932    4.0125   -2.5486 C   0  0  0  0  0  0  0  0  0  0  0  0
    4.4851    3.5434   -1.2575 C   0  0  0  0  0  0  0  0  0  0  0  0
    5.2242    4.3618   -0.2380 C   0  0  0  0  0  0  0  0  0  0  0  0
    4.3801    4.8299    0.7137 F   0  0  0  0  0  0  0  0  0  0  0  0
    5.8364    5.4350   -0.7500 F   0  0  0  0  0  0  0  0  0  0  0  0
    6.1587    3.6591    0.4186 F   0  0  0  0  0  0  0  0  0  0  0  0
    3.9496    2.3278   -0.8529 C   0  0  0  0  0  0  0  0  0  0  0  0
    3.1046   -0.8008   -1.6483 O   0  0  0  0  0  0  0  0  0  0  0  0
    0.7703    1.5501   -0.2745 C   0  0  0  0  0  0  0  0  0  0  0  0
    1.4006    2.4975    0.7726 C   0  0  0  0  0  0  0  0  0  0  0  0
    1.6343    3.6966    0.2707 O   0  0  0  0  0  0  0  0  0  0  0  0
    1.6259    2.1731    1.9058 O   0  0  0  0  0  0  0  0  0  0  0  0
   -0.4775    1.0549    0.2636 N   0  0  0  0  0  0  0  0  0  0  0  0
   -1.5102    1.9098    0.4289 C   0  0  0  0  0  0  0  0  0  0  0  0
   -2.7276    1.3166    1.0706 C   0  0  0  0  0  0  0  0  0  0  0  0
   -3.8363    1.0412    0.2840 C   0  0  0  0  0  0  0  0  0  0  0  0
   -4.9530    0.4599    0.8615 C   0  0  0  0  0  0  0  0  0  0  0  0
   -6.1374    0.1002    0.0114 C   0  0  0  0  0  0  0  0  0  0  0  0
   -6.6535   -1.0979    0.3357 F   0  0  0  0  0  0  0  0  0  0  0  0
   -7.1467    0.9824    0.1296 F   0  0  0  0  0  0  0  0  0  0  0  0
   -5.8441    0.0393   -1.2971 F   0  0  0  0  0  0  0  0  0  0  0  0
   -4.9960    0.2055    2.2264 C   0  0  0  0  0  0  0  0  0  0  0  0
   -3.9067    0.5352    3.0121 C   0  0  0  0  0  0  0  0  0  0  0  0
   -2.7699    1.0787    2.4375 C   0  0  0  0  0  0  0  0  0  0  0  0
   -1.4504    3.0690    0.0714 O   0  0  0  0  0  0  0  0  0  0  0  0
   -3.0739    0.0382   -3.1386 H   0  0  0  0  0  0  0  0  0  0  0  0
   -1.4209    0.4488   -3.6566 H   0  0  0  0  0  0  0  0  0  0  0  0
   -1.9487   -1.2518   -3.6502 H   0  0  0  0  0  0  0  0  0  0  0  0
   -3.6479   -1.9890   -2.1916 H   0  0  0  0  0  0  0  0  0  0  0  0
   -4.6263   -3.3823   -0.4505 H   0  0  0  0  0  0  0  0  0  0  0  0
   -3.6622   -3.4059    1.8241 H   0  0  0  0  0  0  0  0  0  0  0  0
   -1.7108   -1.9859    2.3324 H   0  0  0  0  0  0  0  0  0  0  0  0
   -0.1935   -0.3559    1.7811 H   0  0  0  0  0  0  0  0  0  0  0  0
    0.6024   -1.4469   -0.9050 H   0  0  0  0  0  0  0  0  0  0  0  0
    2.5892   -0.0221    1.9063 H   0  0  0  0  0  0  0  0  0  0  0  0
    4.0427   -1.4093    3.3359 H   0  0  0  0  0  0  0  0  0  0  0  0
    4.0121   -3.8680    3.0845 H   0  0  0  0  0  0  0  0  0  0  0  0
    2.5378   -4.9276    1.4613 H   0  0  0  0  0  0  0  0  0  0  0  0
    1.7863   -5.3365   -0.7368 H   0  0  0  0  0  0  0  0  0  0  0  0
    0.0763   -5.1210   -1.1880 H   0  0  0  0  0  0  0  0  0  0  0  0
    0.5012   -5.5086    0.4955 H   0  0  0  0  0  0  0  0  0  0  0  0
    2.4547    1.4405   -3.7467 H   0  0  0  0  0  0  0  0  0  0  0  0
    3.4245    3.5993   -4.4544 H   0  0  0  0  0  0  0  0  0  0  0  0
    4.7119    4.9610   -2.8467 H   0  0  0  0  0  0  0  0  0  0  0  0
    4.1239    1.9649    0.1497 H   0  0  0  0  0  0  0  0  0  0  0  0
    0.5923    2.1317   -1.1912 H   0  0  0  0  0  0  0  0  0  0  0  0
    1.9915    4.3076    0.9392 H   0  0  0  0  0  0  0  0  0  0  0  0
   -3.8168    1.2644   -0.7712 H   0  0  0  0  0  0  0  0  0  0  0  0
   -5.8752   -0.2442    2.6614 H   0  0  0  0  0  0  0  0  0  0  0  0
   -3.9408    0.3568    4.0756 H   0  0  0  0  0  0  0  0  0  0  0  0
   -1.9145    1.3228    3.0496 H   0  0  0  0  0  0  0  0  0  0  0  0
  1  2  1  0  0  0  0
  2  3  1  0  0  0  0
  1  4  4  0  0  0  0
  4  5  4  0  0  0  0
  5  6  4  0  0  0  0
  6  7  4  0  0  0  0
  1  8  4  0  0  0  0
  7  8  4  0  0  0  0
  8  9  1  0  0  0  0
  9 10  1  0  0  0  0
 10 11  1  0  0  0  0
 11 12  4  0  0  0  0
 12 13  4  0  0  0  0
 13 14  4  0  0  0  0
 14 15  4  0  0  0  0
 11 16  4  0  0  0  0
 15 16  4  0  0  0  0
 16 17  1  0  0  0  0
 17 18  1  0  0  0  0
 10 19  1  0  0  0  0
 19 20  4  0  0  0  0
 20 21  1  0  0  0  0
 21 22  4  0  0  0  0
 22 23  4  0  0  0  0
 23 24  4  0  0  0  0
 24 25  4  0  0  0  0
 25 26  1  0  0  0  0
 26 27  1  0  0  0  0
 26 28  1  0  0  0  0
 26 29  1  0  0  0  0
 21 30  4  0  0  0  0
 25 30  4  0  0  0  0
 20 31  2  0  0  0  0
 19 32  1  0  0  0  0
 32 33  1  0  0  0  0
 33 34  1  0  0  0  0
 33 35  2  0  0  0  0
  9 36  1  0  0  0  0
 32 36  1  0  0  0  0
 36 37  4  0  0  0  0
 37 38  1  0  0  0  0
 38 39  4  0  0  0  0
 39 40  4  0  0  0  0
 40 41  1  0  0  0  0
 41 42  1  0  0  0  0
 41 43  1  0  0  0  0
 41 44  1  0  0  0  0
 40 45  4  0  0  0  0
 45 46  4  0  0  0  0
 38 47  4  0  0  0  0
 46 47  4  0  0  0  0
 37 48  2  0  0  0  0
  3 49  1  0  0  0  0
  3 50  1  0  0  0  0
  3 51  1  0  0  0  0
  4 52  1  0  0  0  0
  5 53  1  0  0  0  0
  6 54  1  0  0  0  0
  7 55  1  0  0  0  0
  9 56  1  0  0  0  0
 10 57  1  0  0  0  0
 12 58  1  0  0  0  0
 13 59  1  0  0  0  0
 14 60  1  0  0  0  0
 15 61  1  0  0  0  0
 18 62  1  0  0  0  0
 18 63  1  0  0  0  0
 18 64  1  0  0  0  0
 22 65  1  0  0  0  0
 23 66  1  0  0  0  0
 24 67  1  0  0  0  0
 30 68  1  0  0  0  0
 32 69  1  0  0  0  0
 34 70  1  0  0  0  0
 39 71  1  0  0  0  0
 45 72  1  0  0  0  0
 46 73  1  0  0  0  0
 47 74  1  0  0  0  0
M  END
