
  xtb     03162221243D
 xtb: 6.3.3 (4ae9cef)
 62 66  0     0  0            999 V2000
    2.2550    1.1915   -1.4995 C   0  0  0  0  0  0  0  0  0  0  0  0
    1.5424    0.1824   -2.0754 O   0  0  0  0  0  0  0  0  0  0  0  0
    1.8010   -0.1329   -3.4245 C   0  0  0  0  0  0  0  0  0  0  0  0
    3.2852    1.8784   -2.1313 C   0  0  0  0  0  0  0  0  0  0  0  0
    3.9534    2.8970   -1.4740 C   0  0  0  0  0  0  0  0  0  0  0  0
    3.6056    3.2455   -0.1833 C   0  0  0  0  0  0  0  0  0  0  0  0
    2.5842    2.5615    0.4523 C   0  0  0  0  0  0  0  0  0  0  0  0
    1.9021    1.5413   -0.1870 C   0  0  0  0  0  0  0  0  0  0  0  0
    0.7996    0.8107    0.5333 C   0  0  0  0  0  0  0  0  0  0  0  0
   -0.5649    0.8900   -0.1696 C   0  0  0  0  0  0  0  0  0  0  0  0
   -1.5735    1.6450    0.6569 C   0  0  0  0  0  0  0  0  0  0  0  0
   -2.1430    1.0724    1.7812 C   0  0  0  0  0  0  0  0  0  0  0  0
   -3.0656    1.7712    2.5406 C   0  0  0  0  0  0  0  0  0  0  0  0
   -3.4166    3.0552    2.1708 C   0  0  0  0  0  0  0  0  0  0  0  0
   -2.8473    3.6480    1.0565 C   0  0  0  0  0  0  0  0  0  0  0  0
   -1.9173    2.9538    0.2916 C   0  0  0  0  0  0  0  0  0  0  0  0
   -1.2856    3.4603   -0.8039 O   0  0  0  0  0  0  0  0  0  0  0  0
   -1.6533    4.7382   -1.2631 C   0  0  0  0  0  0  0  0  0  0  0  0
   -0.9574   -0.5010   -0.3597 N   0  0  0  0  0  0  0  0  0  0  0  0
   -2.1769   -0.7974   -0.8607 C   0  0  0  0  0  0  0  0  0  0  0  0
   -2.5314   -2.2535   -0.8596 C   0  0  0  0  0  0  0  0  0  0  0  0
   -2.1505   -3.1878   -1.7751 C   0  0  0  0  0  0  0  0  0  0  0  0
   -0.9900   -2.9461   -3.2235 Br  0  0  0  0  0  0  0  0  0  0  0  0
   -2.8514   -4.7450   -1.4793 S   0  0  0  0  0  0  0  0  0  0  0  0
   -3.6829   -4.1188   -0.1102 C   0  0  0  0  0  0  0  0  0  0  0  0
   -3.4333   -2.8013    0.0913 C   0  0  0  0  0  0  0  0  0  0  0  0
   -2.9625    0.0436   -1.2363 O   0  0  0  0  0  0  0  0  0  0  0  0
    0.0744   -1.4403    0.0057 C   0  0  0  0  0  0  0  0  0  0  0  0
   -0.4604   -2.4818    1.0077 C   0  0  0  0  0  0  0  0  0  0  0  0
   -0.3105   -3.7303    0.5620 O   0  0  0  0  0  0  0  0  0  0  0  0
   -0.9511   -2.2106    2.0669 O   0  0  0  0  0  0  0  0  0  0  0  0
    1.0793   -0.6182    0.6303 N   0  0  0  0  0  0  0  0  0  0  0  0
    2.0699   -1.0400    1.4507 C   0  0  0  0  0  0  0  0  0  0  0  0
    2.2797   -2.5191    1.4899 C   0  0  0  0  0  0  0  0  0  0  0  0
    2.7667   -3.2679    0.4582 C   0  0  0  0  0  0  0  0  0  0  0  0
    3.2216   -2.6634   -1.2534 Br  0  0  0  0  0  0  0  0  0  0  0  0
    2.9772   -4.9338    0.8801 S   0  0  0  0  0  0  0  0  0  0  0  0
    2.4123   -4.6109    2.4721 C   0  0  0  0  0  0  0  0  0  0  0  0
    2.0962   -3.3051    2.6574 C   0  0  0  0  0  0  0  0  0  0  0  0
    2.7515   -0.2800    2.1024 O   0  0  0  0  0  0  0  0  0  0  0  0
    1.0899   -0.9129   -3.6891 H   0  0  0  0  0  0  0  0  0  0  0  0
    1.6440    0.7345   -4.0722 H   0  0  0  0  0  0  0  0  0  0  0  0
    2.8161   -0.5178   -3.5580 H   0  0  0  0  0  0  0  0  0  0  0  0
    3.5790    1.6210   -3.1360 H   0  0  0  0  0  0  0  0  0  0  0  0
    4.7531    3.4158   -1.9815 H   0  0  0  0  0  0  0  0  0  0  0  0
    4.1286    4.0378    0.3292 H   0  0  0  0  0  0  0  0  0  0  0  0
    2.3133    2.8152    1.4657 H   0  0  0  0  0  0  0  0  0  0  0  0
    0.7305    1.2108    1.5530 H   0  0  0  0  0  0  0  0  0  0  0  0
   -0.4776    1.3746   -1.1466 H   0  0  0  0  0  0  0  0  0  0  0  0
   -1.8652    0.0667    2.0629 H   0  0  0  0  0  0  0  0  0  0  0  0
   -3.5067    1.3134    3.4127 H   0  0  0  0  0  0  0  0  0  0  0  0
   -4.1393    3.6090    2.7515 H   0  0  0  0  0  0  0  0  0  0  0  0
   -3.1378    4.6522    0.7915 H   0  0  0  0  0  0  0  0  0  0  0  0
   -1.4295    5.5121   -0.5217 H   0  0  0  0  0  0  0  0  0  0  0  0
   -2.7142    4.7798   -1.5282 H   0  0  0  0  0  0  0  0  0  0  0  0
   -1.0518    4.9125   -2.1539 H   0  0  0  0  0  0  0  0  0  0  0  0
   -4.3186   -4.7664    0.4599 H   0  0  0  0  0  0  0  0  0  0  0  0
   -3.8585   -2.2173    0.8870 H   0  0  0  0  0  0  0  0  0  0  0  0
    0.4703   -1.9614   -0.8823 H   0  0  0  0  0  0  0  0  0  0  0  0
   -0.6473   -4.3767    1.2046 H   0  0  0  0  0  0  0  0  0  0  0  0
    2.3589   -5.4116    3.1825 H   0  0  0  0  0  0  0  0  0  0  0  0
    1.7312   -2.8926    3.5802 H   0  0  0  0  0  0  0  0  0  0  0  0
  1  2  1  0  0  0  0
  2  3  1  0  0  0  0
  1  4  4  0  0  0  0
  4  5  4  0  0  0  0
  5  6  4  0  0  0  0
  6  7  4  0  0  0  0
  1  8  4  0  0  0  0
  7  8  4  0  0  0  0
  8  9  1  0  0  0  0
  9 10  1  0  0  0  0
 10 11  1  0  0  0  0
 11 12  4  0  0  0  0
 12 13  4  0  0  0  0
 13 14  4  0  0  0  0
 14 15  4  0  0  0  0
 11 16  4  0  0  0  0
 15 16  4  0  0  0  0
 16 17  1  0  0  0  0
 17 18  1  0  0  0  0
 10 19  1  0  0  0  0
 19 20  4  0  0  0  0
 20 21  1  0  0  0  0
 21 22  2  0  0  0  0
 22 23  1  0  0  0  0
 22 24  1  0  0  0  0
 24 25  1  0  0  0  0
 21 26  4  0  0  0  0
 25 26  2  0  0  0  0
 20 27  2  0  0  0  0
 19 28  1  0  0  0  0
 28 29  1  0  0  0  0
 29 30  1  0  0  0  0
 29 31  2  0  0  0  0
  9 32  1  0  0  0  0
 28 32  1  0  0  0  0
 32 33  4  0  0  0  0
 33 34  1  0  0  0  0
 34 35  2  0  0  0  0
 35 36  1  0  0  0  0
 35 37  1  0  0  0  0
 37 38  1  0  0  0  0
 34 39  4  0  0  0  0
 38 39  2  0  0  0  0
 33 40  2  0  0  0  0
  3 41  1  0  0  0  0
  3 42  1  0  0  0  0
  3 43  1  0  0  0  0
  4 44  1  0  0  0  0
  5 45  1  0  0  0  0
  6 46  1  0  0  0  0
  7 47  1  0  0  0  0
  9 48  1  0  0  0  0
 10 49  1  0  0  0  0
 12 50  1  0  0  0  0
 13 51  1  0  0  0  0
 14 52  1  0  0  0  0
 15 53  1  0  0  0  0
 18 54  1  0  0  0  0
 18 55  1  0  0  0  0
 18 56  1  0  0  0  0
 25 57  1  0  0  0  0
 26 58  1  0  0  0  0
 28 59  1  0  0  0  0
 30 60  1  0  0  0  0
 38 61  1  0  0  0  0
 39 62  1  0  0  0  0
M  END
