82

C     -0.673703   -2.714135   -1.503030
C     -0.982786   -4.009861   -1.923404
C     -1.867971   -4.811212   -1.187426
C     -2.186301   -6.117096   -1.595419
C     -3.071394   -6.900743   -0.852989
C     -3.649315   -6.389153    0.305017
C     -3.342711   -5.093136    0.723457
C     -2.453266   -4.292359   -0.011386
C     -2.133315   -2.987157    0.399335
C     -1.241964   -2.187210   -0.334493
C     -0.886947   -0.797007    0.175167
C      0.592021   -0.759450    0.651607
C      0.699398   -0.793425    2.167186
C      0.666998   -2.043600    2.814579
C      0.715870   -2.152767    4.214810
C      0.678524   -3.402495    4.855045
C      0.724520   -3.492671    6.247412
C      0.807853   -2.335854    7.016474
C      0.846393   -1.086607    6.394571
C      0.800699   -0.979959    4.994623
C      0.835150    0.265454    4.351521
C      0.784299    0.357332    2.956819
N      1.177428    0.416031   -0.005723
C      2.547562    0.546823   -0.106673
C      3.067493    1.774164   -0.840245
C      4.595929    1.830452   -0.872683
C      5.088955    3.024205   -1.691822
C      6.615382    3.101416   -1.701928
C      7.107602    4.268605   -2.543416
O      3.317290   -0.285096    0.368588
C      0.184983    1.120321   -0.802942
C     -0.179900    2.461363   -0.091546
O      0.213135    3.572101   -0.768647
O     -0.756962    2.549665    0.982972
N     -0.970218    0.241626   -0.857215
C     -2.146944    0.496986   -1.534470
C     -2.075081    1.528061   -2.655036
C     -3.409638    1.760504   -3.368394
C     -4.457618    2.524444   -2.548811
C     -4.049306    3.962139   -2.223150
C     -5.177671    4.714601   -1.533160
O     -3.187767   -0.105231   -1.284284
H      0.019578   -2.122922   -2.095917
H     -0.525472   -4.391729   -2.833408
H     -1.747479   -6.533136   -2.499423
H     -3.311379   -7.908428   -1.181699
H     -4.341887   -6.996078    0.882391
H     -3.807922   -4.708790    1.628571
H     -2.589514   -2.586092    1.303576
H     -1.580599   -0.495989    0.971704
H      1.159037   -1.618882    0.267248
H      0.602242   -2.952758    2.216599
H      0.612811   -4.317660    4.270263
H      0.696433   -4.466523    6.729294
H      0.842778   -2.403890    8.100793
H      0.911488   -0.193120    7.011227
H      0.898613    1.182333    4.933278
H      0.809536    1.346100    2.509229
H      2.689086    1.759894   -1.866717
H      2.691014    2.665679   -0.330207
H      4.980869    1.897513    0.153315
H      4.995622    0.901757   -1.301032
H      4.676465    3.952469   -1.277320
H      4.719445    2.937596   -2.721608
H      7.034789    2.169266   -2.099120
H      6.988491    3.213474   -0.677022
H      8.201244    4.310111   -2.532786
H      6.726272    5.219492   -2.156328
H      6.780071    4.167613   -3.582659
H      0.543817    1.305667   -1.818536
H      0.664520    3.433838   -1.621813
H     -1.357713    1.146281   -3.392131
H     -1.688419    2.474555   -2.277586
H     -3.837227    0.795808   -3.668559
H     -3.217583    2.315653   -4.294774
H     -4.681146    1.988283   -1.620196
H     -5.388968    2.541914   -3.128271
H     -3.173332    3.970302   -1.565718
H     -3.774162    4.490927   -3.143136
H     -6.062782    4.769981   -2.175498
H     -4.863878    5.736998   -1.300505
H     -5.461464    4.222427   -0.596410
