92

C     -2.294765    1.624499    3.536391
C     -2.571652    2.883515    3.015204
C     -2.318191    3.140297    1.675808
C     -1.792302    2.137937    0.856962
C     -1.493821    0.847192    1.353982
C     -1.754863    0.610555    2.730277
C     -1.468913   -0.639729    3.295693
C     -0.914482   -1.661906    2.533896
C     -0.643579   -1.448548    1.188669
C     -0.942518   -0.213327    0.569841
C     -0.596177   -0.031794   -0.913125
C      0.935716    0.198066   -1.053480
C      1.265361    1.566943   -1.646274
C      1.121941    1.772712   -3.031276
C      1.404187    3.004719   -3.610454
C      1.817680    4.065953   -2.814707
C      1.945630    3.918756   -1.428986
C      1.670615    2.665440   -0.817428
C      1.813812    2.604599    0.591280
C      2.208088    3.710851    1.349662
C      2.475745    4.919983    0.724834
C      2.346219    5.021637   -0.655564
N      1.416389   -0.945546   -1.840278
C      2.699790   -1.457264   -1.848113
C      3.725755   -0.644620   -1.236543
C      4.104414   -0.678625    0.097463
C      3.699960   -1.450524    1.269343
C      3.704283   -0.859458    2.540388
C      3.281440   -1.577055    3.661956
C      2.854464   -2.892597    3.529064
C      2.860273   -3.499209    2.274888
C      3.280087   -2.784214    1.151272
O      5.051385    0.282072    0.323635
C      5.290078    0.915092   -0.856653
C      6.278372    2.007696   -0.826220
C      4.514924    0.366888   -1.852188
O      2.963344   -2.557166   -2.326294
C      0.328708   -1.780577   -2.319143
C      0.242695   -1.807545   -3.882024
O      1.320315   -1.294736   -4.519771
O     -0.673931   -2.241049   -4.562682
N     -0.874625   -1.218063   -1.739325
C     -2.060157   -1.926778   -1.791204
C     -3.264274   -1.207158   -1.425470
C     -4.143591   -1.499029   -0.390372
C     -4.237961   -2.488969    0.683046
C     -4.925257   -2.178690    1.871186
C     -5.019085   -3.102117    2.916261
C     -4.424689   -4.354785    2.796692
C     -3.738886   -4.679594    1.630487
C     -3.652746   -3.756585    0.581728
O     -5.151584   -0.568189   -0.385143
C     -4.931747    0.301652   -1.404134
C     -5.924769    1.382069   -1.570280
C     -3.785785   -0.046200   -2.077003
O     -2.094109   -3.093944   -2.171520
H     -2.495742    1.437999    4.588674
H     -2.976649    3.662105    3.656551
H     -2.526673    4.122203    1.261211
H     -1.610702    2.404735   -0.180162
H     -1.677748   -0.831604    4.346313
H     -0.697417   -2.626148    2.988637
H     -0.197341   -2.266911    0.625416
H     -1.179616    0.773112   -1.362953
H      1.424804    0.100013   -0.082882
H      0.799304    0.966601   -3.684897
H      1.305548    3.137577   -4.685252
H      2.032639    5.021512   -3.289284
H      1.620892    1.691278    1.147459
H      2.297204    3.622841    2.429484
H      2.775100    5.786615    1.309501
H      2.557483    5.978108   -1.131124
H      4.030413    0.172644    2.662059
H      3.287344   -1.104077    4.639142
H      2.530729   -3.452663    4.402860
H      2.549593   -4.534059    2.170435
H      3.297875   -3.291926    0.187875
H      7.287358    1.603445   -0.702144
H      6.074215    2.688900    0.003634
H      6.253631    2.587182   -1.755153
H      4.484112    0.679585   -2.886645
H      0.475034   -2.811977   -1.974859
H      1.147640   -1.488373   -5.464788
H     -5.396855   -1.204544    1.989061
H     -5.564223   -2.840734    3.819706
H     -4.500783   -5.075258    3.606974
H     -3.274178   -5.656254    1.531612
H     -3.130327   -4.067301   -0.318319
H     -6.049880    1.934797   -0.633092
H     -5.612370    2.091216   -2.344291
H     -6.896947    0.966664   -1.858148
H     -3.370680    0.459164   -2.938344
