70

C     -2.356493   -0.819615    2.838548
O     -1.238794   -0.786370    3.646998
C     -0.945641   -2.125780    4.054615
C     -3.613730   -0.680893    3.423676
C     -4.751992   -0.830820    2.629859
C     -4.618069   -1.168240    1.281790
C     -3.357989   -1.255093    0.689660
C     -2.213259   -0.994917    1.443701
C     -0.882551   -0.635250    0.815395
C     -0.357114   -1.195973   -0.566957
C      0.332248   -2.550833   -0.511203
C      1.257580   -2.864238    0.521421
C      1.979561   -4.059202    0.518279
C      1.846453   -4.922210   -0.555341
C      0.945950   -4.647259   -1.587881
C      0.164420   -3.475995   -1.571891
O     -0.821625   -3.219455   -2.491519
C     -0.663405   -3.823198   -3.770508
N      0.657802   -0.172234   -0.966078
C      1.208915   -0.106844   -2.233795
C      2.441278    0.714883   -2.369387
C      2.405227    2.107931   -2.538331
C      3.616377    2.842917   -2.523940
C      4.833498    2.170890   -2.332749
C      4.857150    0.769396   -2.188985
C      6.110005    0.115509   -1.969061
N      7.131344   -0.410957   -1.783019
C      3.661917    0.042163   -2.218190
O      0.830946   -0.760584   -3.206131
C      0.591658    0.984833   -0.062726
C      1.797609    1.072322    0.941446
O      2.764097    0.154104    0.742880
O      1.916530    1.912807    1.826953
N     -0.683315    0.846088    0.672087
C     -1.739533    1.584121    0.084659
C     -1.890228    3.029222    0.452555
C     -0.946097    3.744710    1.200021
C     -1.135900    5.097803    1.450694
C     -0.140043    5.848910    2.178807
N      0.671933    6.509936    2.690276
C     -2.300940    5.737939    0.980863
C     -3.272530    5.040129    0.262168
C     -3.058010    3.697836    0.001845
O     -2.602593    1.071006   -0.631970
H     -1.370684   -2.313377    5.053326
H     -1.363408   -2.880134    3.376477
H      0.166676   -2.257795    4.020691
H     -3.706931   -0.422845    4.489355
H     -5.730066   -0.659816    3.065196
H     -5.499845   -1.268748    0.640756
H     -3.303863   -1.430063   -0.384665
H     -0.145620   -0.899283    1.583637
H     -1.150677   -1.176960   -1.316346
H      1.458071   -2.200655    1.351470
H      2.671113   -4.284983    1.305364
H      2.446317   -5.823719   -0.604378
H      0.875724   -5.371273   -2.406916
H      0.340419   -3.678687   -4.172271
H     -0.864634   -4.914372   -3.718104
H     -1.384852   -3.392058   -4.475127
H      1.457209    2.636496   -2.705701
H      3.615339    3.937873   -2.647554
H      5.781334    2.736502   -2.320050
H      3.646795   -1.047509   -2.090732
H      0.597886    1.907503   -0.647347
H      3.576242    0.499518    1.143157
H     -0.061817    3.243833    1.593813
H     -2.454088    6.793529    1.192533
H     -4.197070    5.532281   -0.044529
H     -3.832215    3.145248   -0.551582
