70

C     -0.576069   -2.749018    2.239316
C     -0.946225   -4.092800    2.332958
C     -1.960634   -4.591650    1.521987
C     -2.612457   -3.743375    0.630889
C     -2.241231   -2.398781    0.537270
C     -1.202167   -1.880639    1.323160
C     -0.742413   -0.427231    1.260160
C      0.737879   -0.302490    0.761495
C      1.651200    0.183337    1.875206
C      2.620389   -0.682426    2.409661
C      3.459367   -0.260250    3.442453
C      3.341456    1.030027    3.954115
C      2.385028    1.900547    3.434568
C      1.543507    1.480719    2.402419
N      0.668925    0.622784   -0.375689
C      1.676168    1.121948   -1.169280
C      3.092279    0.641233   -0.899845
C      4.033660    0.962885   -2.063508
C      5.484988    0.555974   -1.801700
C      5.685128   -0.956033   -1.687161
C      7.157893   -1.306873   -1.529729
O      1.424958    1.941404   -2.054821
C     -0.699490    0.816433   -0.801266
C     -1.013957   -0.103385   -2.029667
O     -2.325979   -0.393711   -2.182189
O     -0.228593   -0.507680   -2.875203
N     -1.503330    0.443654    0.353325
C     -2.691914    1.019338    0.744880
C     -3.303520    2.058887   -0.184895
C     -4.733060    2.457149    0.189309
C     -5.786153    1.356933    0.003026
C     -5.896829    0.763288   -1.403170
C     -6.200497    1.793402   -2.479297
O     -3.211841    0.743497    1.826073
H      0.199417   -2.380446    2.908197
H     -0.451005   -4.747039    3.046966
H     -2.258025   -5.634278    1.599036
H     -3.424142   -4.124096    0.015505
H     -2.800561   -1.764843   -0.143502
H     -0.864139   -0.019935    2.273351
H      1.109500   -1.252968    0.357085
H      2.730976   -1.694315    2.022590
H      4.206607   -0.937549    3.848705
H      3.994170    1.358508    4.759894
H      2.293320    2.907400    3.837074
H      0.801926    2.176593    2.012739
H      3.068885   -0.439516   -0.733686
H      3.458917    1.139168    0.002955
H      3.671912    0.478933   -2.978283
H      4.012535    2.042191   -2.258176
H      5.845284    1.046560   -0.890161
H      6.100165    0.934935   -2.627623
H      5.290403   -1.453829   -2.580736
H      5.140128   -1.349062   -0.822361
H      7.284198   -2.391348   -1.450882
H      7.573504   -0.849127   -0.624667
H      7.739879   -0.958271   -2.391507
H     -0.869933    1.855186   -1.099666
H     -2.346408   -0.931201   -3.003030
H     -3.273410    1.716544   -1.220299
H     -2.673493    2.954552   -0.114728
H     -5.017624    3.331475   -0.407537
H     -4.760049    2.786004    1.235738
H     -6.761845    1.770728    0.287337
H     -5.590198    0.539202    0.706362
H     -4.979967    0.223746   -1.661131
H     -6.699282    0.014905   -1.399529
H     -6.365864    1.294639   -3.440102
H     -5.370697    2.494933   -2.611584
H     -7.101551    2.364527   -2.233042
