54

C      1.029876    2.000392   -1.704518
C      1.296499    3.327397   -2.042843
C      1.603536    4.252909   -1.048583
C      1.639638    3.855017    0.285765
C      1.371194    2.529262    0.628221
C      1.072090    1.582303   -0.363668
C      0.772235    0.146148    0.035630
C     -0.744779   -0.143821   -0.113240
C     -1.430715   -0.277297    1.234063
C     -1.327512   -1.434260    2.019327
C     -1.961874   -1.511745    3.260771
C     -2.702329   -0.433017    3.737191
C     -2.807211    0.726883    2.974629
C     -2.172983    0.806677    1.734070
N     -0.826183   -1.332498   -0.964233
C     -1.936852   -1.805502   -1.633958
C     -3.208612   -1.158491   -1.358650
C     -3.693453   -0.068307   -2.047908
Br    -2.779830    0.815144   -3.485607
S     -5.207672    0.464305   -1.493738
C     -5.281905   -0.791049   -0.334477
C     -4.161381   -1.592415   -0.375324
O     -1.870200   -2.738774   -2.426972
C      0.485617   -1.780841   -1.401958
C      0.761445   -3.204644   -0.850706
O      0.894748   -4.138893   -1.815072
O      0.856715   -3.519187    0.329239
N      1.430405   -0.845086   -0.817656
C      2.774063   -0.986379   -1.097830
C      3.711173   -0.183999   -0.324439
C      4.586426    0.731927   -0.868513
Br     4.711697    1.170981   -2.732219
S      5.561365    1.509030    0.286238
C      4.868451    0.602686    1.559047
C      3.903363   -0.267263    1.100427
O      3.170799   -1.787722   -1.939220
H      0.798483    1.296068   -2.501270
H      1.270968    3.638198   -3.084502
H      1.817355    5.284985   -1.314382
H      1.881395    4.578527    1.060441
H      1.406955    2.241423    1.677303
H      1.118344   -0.036692    1.059562
H     -1.242325    0.660878   -0.667477
H     -0.757266   -2.293560    1.677543
H     -1.876243   -2.417772    3.856108
H     -3.196102   -0.496368    4.703478
H     -3.384268    1.570496    3.345314
H     -2.270702    1.724604    1.156096
H     -6.140125   -0.884374    0.317180
H     -4.017172   -2.444773    0.278676
H      0.567386   -1.765113   -2.494838
H      1.067457   -4.976172   -1.339427
H      5.206974    0.744247    2.576511
H      3.361045   -0.944472    1.750399
