62

C     -2.877607   -1.111369   -1.115200
O     -2.091146   -1.041998   -2.226796
C     -2.667991   -1.414201   -3.474449
C     -4.238371   -1.453968   -1.154027
C     -5.001912   -1.515919    0.014323
C     -4.415199   -1.232369    1.239612
C     -3.066767   -0.886779    1.289196
C     -2.269931   -0.814009    0.119265
C     -0.809154   -0.424962    0.310393
C      0.297133   -0.495153   -0.785386
C      0.867638   -1.887628   -1.039621
C      0.809768   -2.390968   -2.355464
C      1.296564   -3.657018   -2.675134
C      1.856442   -4.448240   -1.683370
C      1.949114   -3.965271   -0.378040
C      1.478781   -2.684152   -0.051443
O      1.559984   -2.156707    1.211277
C      2.571369   -2.697910    2.061801
N      1.317333    0.457320   -0.300708
C      2.305920    0.908497   -1.163197
C      3.110598    2.025729   -0.720083
C      2.931983    3.341646   -1.102442
Br     1.556696    4.009047   -2.242667
O      3.862971    4.136820   -0.507287
C      4.664000    3.327025    0.232856
C      4.251388    2.020262    0.131557
O      2.490246    0.426286   -2.277544
C      0.838491    1.172200    0.870745
C      1.521146    0.710438    2.195476
O      0.629716    0.356912    3.163520
O      2.726588    0.681227    2.400158
N     -0.609727    0.921347    0.925974
C     -1.328583    1.998782    0.366232
C     -1.429399    3.181301    1.222083
C     -1.811306    4.455951    0.821897
Br    -2.291356    5.046671   -0.930871
O     -1.780887    5.319808    1.878573
C     -1.380426    4.619593    2.961537
C     -1.168327    3.302987    2.625319
O     -1.807793    1.952483   -0.758619
H     -3.029691   -2.449557   -3.450109
H     -3.462624   -0.717031   -3.767525
H     -1.882570   -1.357526   -4.232791
H     -4.743184   -1.670357   -2.089072
H     -6.053667   -1.783930   -0.039574
H     -5.004490   -1.282555    2.154411
H     -2.631966   -0.678005    2.262199
H     -0.500029   -1.107503    1.111309
H     -0.061877   -0.053306   -1.721980
H      0.395442   -1.779866   -3.154987
H      1.241238   -4.017646   -3.698467
H      2.231443   -5.438894   -1.924175
H      2.392770   -4.617489    0.366443
H      2.293643   -3.697885    2.407773
H      3.549258   -2.705502    1.564788
H      2.648714   -2.056784    2.943795
H      5.468274    3.819340    0.763667
H      4.705831    1.162683    0.613380
H      1.036574    2.244811    0.786989
H     -0.282075    0.372705    2.802546
H     -1.300436    5.182650    3.882517
H     -0.858561    2.537937    3.319415
