60

C      3.139566   -2.051286    1.804984
C      4.060715   -1.997027    2.852831
C      3.699728   -1.419272    4.065586
C      2.419829   -0.895628    4.229491
C      1.496740   -0.949172    3.181426
C      1.839109   -1.536347    1.950832
C      0.893722   -1.608610    0.752525
C     -0.625990   -1.490302    1.065253
C     -1.494275   -2.419064    0.211247
C     -1.296216   -2.596522   -1.167504
C     -2.121581   -3.447455   -1.906680
C     -3.161855   -4.127525   -1.282981
C     -3.383895   -3.951526    0.079192
C     -2.560159   -3.102266    0.818904
N     -0.946189   -0.087739    0.773715
C     -2.162316    0.457807    1.126349
C     -2.589756    1.710065    0.471745
C     -2.744233    1.753968   -0.921029
C     -3.174267    2.932384   -1.533269
C     -3.460806    4.051929   -0.753447
C     -3.326154    3.984498    0.630985
F     -3.609939    5.066232    1.368430
C     -2.904049    2.819243    1.256808
O     -2.926913   -0.061558    1.934165
C      0.181396    0.598067    0.146682
C      0.797671    1.652911    1.122581
O      2.145369    1.689574    1.137405
O      0.175648    2.449526    1.811640
N      1.126577   -0.473242   -0.149887
C      1.975360   -0.571001   -1.229625
C      2.037469    0.555199   -2.176352
C      2.855041    1.650723   -1.912953
C      2.898156    2.687662   -2.834481
F      3.671923    3.753470   -2.590031
C      2.160309    2.635238   -4.011516
C      1.363135    1.524141   -4.282782
C      1.302231    0.476492   -3.364489
O      2.632530   -1.571952   -1.499170
H      3.448807   -2.496428    0.858475
H      5.057976   -2.404472    2.717936
H      4.415553   -1.374472    4.882776
H      2.140516   -0.441878    5.176819
H      0.516778   -0.512481    3.354363
H      1.107043   -2.553793    0.238064
H     -0.847579   -1.701882    2.116571
H     -0.494972   -2.084200   -1.688297
H     -1.949297   -3.581240   -2.970828
H     -3.803630   -4.789729   -1.857217
H     -4.203438   -4.468317    0.570784
H     -2.767935   -2.962231    1.878496
H     -2.552371    0.870514   -1.523952
H     -3.293574    2.977765   -2.611619
H     -3.798101    4.976421   -1.212439
H     -2.800915    2.789023    2.338236
H     -0.123783    1.115118   -0.763717
H      2.374475    2.323824    1.847145
H      3.462515    1.703598   -1.016805
H      2.223687    3.458439   -4.715632
H      0.804207    1.467370   -5.213647
H      0.700407   -0.402582   -3.582091
