
  xtb     03162223113D
 xtb: 6.3.3 (4ae9cef)
 60 64  0     0  0            999 V2000
    2.9755   -1.6883    2.0911 C   0  0  0  0  0  0  0  0  0  0  0  0
    3.8041   -1.4426    3.1690 C   0  0  0  0  0  0  0  0  0  0  0  0
    3.2823   -0.9052    4.3350 C   0  0  0  0  0  0  0  0  0  0  0  0
    1.9320   -0.6155    4.4118 C   0  0  0  0  0  0  0  0  0  0  0  0
    1.0994   -0.8574    3.3304 C   0  0  0  0  0  0  0  0  0  0  0  0
    1.6150   -1.4001    2.1616 C   0  0  0  0  0  0  0  0  0  0  0  0
    0.7985   -1.6458    0.9149 C   0  0  0  0  0  0  0  0  0  0  0  0
   -0.7306   -1.5119    1.0449 C   0  0  0  0  0  0  0  0  0  0  0  0
   -1.4221   -2.4151    0.0511 C   0  0  0  0  0  0  0  0  0  0  0  0
   -1.6129   -2.0242   -1.2669 C   0  0  0  0  0  0  0  0  0  0  0  0
   -2.2089   -2.8834   -2.1727 C   0  0  0  0  0  0  0  0  0  0  0  0
   -2.6168   -4.1431   -1.7711 C   0  0  0  0  0  0  0  0  0  0  0  0
   -2.4281   -4.5397   -0.4582 C   0  0  0  0  0  0  0  0  0  0  0  0
   -1.8337   -3.6805    0.4477 C   0  0  0  0  0  0  0  0  0  0  0  0
   -0.9595   -0.1043    0.7356 N   0  0  0  0  0  0  0  0  0  0  0  0
   -2.1167    0.5194    1.0831 C   0  0  0  0  0  0  0  0  0  0  0  0
   -2.2523    1.9234    0.5817 C   0  0  0  0  0  0  0  0  0  0  0  0
   -2.2467    2.1839   -0.7853 C   0  0  0  0  0  0  0  0  0  0  0  0
   -2.4172    3.4762   -1.2502 C   0  0  0  0  0  0  0  0  0  0  0  0
   -2.5918    4.5216   -0.3600 C   0  0  0  0  0  0  0  0  0  0  0  0
   -2.6130    4.2406    0.9947 C   0  0  0  0  0  0  0  0  0  0  0  0
   -2.7932    5.2537    1.8636 F   0  0  0  0  0  0  0  0  0  0  0  0
   -2.4573    2.9571    1.4837 C   0  0  0  0  0  0  0  0  0  0  0  0
   -2.9861   -0.0490    1.7056 O   0  0  0  0  0  0  0  0  0  0  0  0
    0.2559    0.5113    0.2466 C   0  0  0  0  0  0  0  0  0  0  0  0
    0.8806    1.4042    1.3430 C   0  0  0  0  0  0  0  0  0  0  0  0
    2.1817    1.5883    1.1454 O   0  0  0  0  0  0  0  0  0  0  0  0
    0.2578    1.9040    2.2341 O   0  0  0  0  0  0  0  0  0  0  0  0
    1.1018   -0.6041   -0.0681 N   0  0  0  0  0  0  0  0  0  0  0  0
    1.6162   -0.9329   -1.2878 C   0  0  0  0  0  0  0  0  0  0  0  0
    1.5752    0.1387   -2.3280 C   0  0  0  0  0  0  0  0  0  0  0  0
    2.0984    1.4061   -2.1005 C   0  0  0  0  0  0  0  0  0  0  0  0
    2.0427    2.3360   -3.1222 C   0  0  0  0  0  0  0  0  0  0  0  0
    2.5437    3.5682   -2.9022 F   0  0  0  0  0  0  0  0  0  0  0  0
    1.4835    2.0477   -4.3543 C   0  0  0  0  0  0  0  0  0  0  0  0
    0.9790    0.7764   -4.5710 C   0  0  0  0  0  0  0  0  0  0  0  0
    1.0300   -0.1767   -3.5689 C   0  0  0  0  0  0  0  0  0  0  0  0
    2.0812   -2.0302   -1.5072 O   0  0  0  0  0  0  0  0  0  0  0  0
    3.3764   -2.1046    1.1787 H   0  0  0  0  0  0  0  0  0  0  0  0
    4.8569   -1.6727    3.1014 H   0  0  0  0  0  0  0  0  0  0  0  0
    3.9265   -0.7149    5.1805 H   0  0  0  0  0  0  0  0  0  0  0  0
    1.5179   -0.1943    5.3154 H   0  0  0  0  0  0  0  0  0  0  0  0
    0.0531   -0.6079    3.4163 H   0  0  0  0  0  0  0  0  0  0  0  0
    1.0806   -2.6073    0.4739 H   0  0  0  0  0  0  0  0  0  0  0  0
   -1.0942   -1.7407    2.0496 H   0  0  0  0  0  0  0  0  0  0  0  0
   -1.3027   -1.0409   -1.5914 H   0  0  0  0  0  0  0  0  0  0  0  0
   -2.3559   -2.5667   -3.1950 H   0  0  0  0  0  0  0  0  0  0  0  0
   -3.0828   -4.8124   -2.4785 H   0  0  0  0  0  0  0  0  0  0  0  0
   -2.7472   -5.5202   -0.1379 H   0  0  0  0  0  0  0  0  0  0  0  0
   -1.6887   -3.9900    1.4724 H   0  0  0  0  0  0  0  0  0  0  0  0
   -2.1369    1.3708   -1.4890 H   0  0  0  0  0  0  0  0  0  0  0  0
   -2.4152    3.6715   -2.3119 H   0  0  0  0  0  0  0  0  0  0  0  0
   -2.7193    5.5369   -0.7002 H   0  0  0  0  0  0  0  0  0  0  0  0
   -2.4794    2.7666    2.5439 H   0  0  0  0  0  0  0  0  0  0  0  0
    0.0816    1.1534   -0.6267 H   0  0  0  0  0  0  0  0  0  0  0  0
    2.5639    2.1454    1.8441 H   0  0  0  0  0  0  0  0  0  0  0  0
    2.5597    1.6614   -1.1599 H   0  0  0  0  0  0  0  0  0  0  0  0
    1.4584    2.8049   -5.1217 H   0  0  0  0  0  0  0  0  0  0  0  0
    0.5490    0.5286   -5.5291 H   0  0  0  0  0  0  0  0  0  0  0  0
    0.6510   -1.1734   -3.7351 H   0  0  0  0  0  0  0  0  0  0  0  0
  1  2  4  0  0  0  0
  2  3  4  0  0  0  0
  3  4  4  0  0  0  0
  4  5  4  0  0  0  0
  1  6  4  0  0  0  0
  5  6  4  0  0  0  0
  6  7  1  0  0  0  0
  7  8  1  0  0  0  0
  8  9  1  0  0  0  0
  9 10  4  0  0  0  0
 10 11  4  0  0  0  0
 11 12  4  0  0  0  0
 12 13  4  0  0  0  0
  9 14  4  0  0  0  0
 13 14  4  0  0  0  0
  8 15  1  0  0  0  0
 15 16  4  0  0  0  0
 16 17  1  0  0  0  0
 17 18  4  0  0  0  0
 18 19  4  0  0  0  0
 19 20  4  0  0  0  0
 20 21  4  0  0  0  0
 21 22  1  0  0  0  0
 17 23  4  0  0  0  0
 21 23  4  0  0  0  0
 16 24  2  0  0  0  0
 15 25  1  0  0  0  0
 25 26  1  0  0  0  0
 26 27  1  0  0  0  0
 26 28  2  0  0  0  0
  7 29  1  0  0  0  0
 25 29  1  0  0  0  0
 29 30  1  0  0  0  0
 30 31  1  0  0  0  0
 31 32  4  0  0  0  0
 32 33  4  0  0  0  0
 33 34  1  0  0  0  0
 33 35  4  0  0  0  0
 35 36  4  0  0  0  0
 31 37  4  0  0  0  0
 36 37  4  0  0  0  0
 30 38  2  0  0  0  0
  1 39  1  0  0  0  0
  2 40  1  0  0  0  0
  3 41  1  0  0  0  0
  4 42  1  0  0  0  0
  5 43  1  0  0  0  0
  7 44  1  0  0  0  0
  8 45  1  0  0  0  0
 10 46  1  0  0  0  0
 11 47  1  0  0  0  0
 12 48  1  0  0  0  0
 13 49  1  0  0  0  0
 14 50  1  0  0  0  0
 18 51  1  0  0  0  0
 19 52  1  0  0  0  0
 20 53  1  0  0  0  0
 23 54  1  0  0  0  0
 25 55  1  0  0  0  0
 27 56  1  0  0  0  0
 32 57  1  0  0  0  0
 35 58  1  0  0  0  0
 36 59  1  0  0  0  0
 37 60  1  0  0  0  0
M  END
