78

C      0.046198   -4.798417    0.368392
C      0.534165   -4.736041    1.806805
F     -0.167285   -3.878995    2.596688
F      1.830234   -4.321324    1.880187
F      0.500763   -5.939820    2.451700
C     -0.329255   -6.054516   -0.147410
C     -0.721440   -6.197810   -1.477447
C     -0.739860   -5.091930   -2.317228
C     -0.381685   -3.837559   -1.828793
C      0.007678   -3.658821   -0.483317
C      0.383805   -2.268817    0.023122
C      1.564111   -1.593293   -0.759934
C      2.905461   -1.830700   -0.063000
C      3.915784   -2.643070   -0.628789
C      3.771607   -3.300608   -1.987473
F      2.719613   -4.167947   -2.018857
F      4.851446   -4.039856   -2.364207
F      3.563416   -2.414450   -2.993886
C      5.101802   -2.859529    0.097161
C      5.305767   -2.277851    1.348933
C      4.329250   -1.463855    1.896700
C      3.142509   -1.239924    1.201581
N      1.160654   -0.185406   -0.792348
C      1.973439    0.820510   -1.287513
C      1.569784    2.218651   -1.001311
C      1.406746    3.124539   -2.048253
C      1.011225    4.435642   -1.764760
C      0.801634    4.851599   -0.437404
C      0.387353    6.272785   -0.129210
C      1.568273    7.230906   -0.157262
C      1.006475    3.937206    0.605335
C      1.387359    2.622030    0.328750
O      3.031908    0.616839   -1.872333
C     -0.283997   -0.065732   -0.715761
C     -0.942868    0.020132   -2.137046
O     -1.893792   -0.921357   -2.372860
O     -0.661223    0.847352   -2.990431
N     -0.724154   -1.291581   -0.049834
C     -1.815334   -1.388161    0.804264
C     -2.667061   -0.195659    0.980022
C     -3.839269   -0.066689    0.231486
C     -4.605406    1.091563    0.361697
C     -4.214843    2.113289    1.243487
C     -5.051531    3.361196    1.374592
C     -6.171528    3.195748    2.389697
C     -3.059038    1.946993    2.022812
C     -2.286857    0.792788    1.897104
O     -2.135139   -2.416762    1.382295
H     -0.289593   -6.941642    0.481596
H     -0.987624   -7.177449   -1.863609
H     -1.022504   -5.212638   -3.362304
H     -0.390290   -3.007464   -2.530517
H      0.629804   -2.308099    1.089948
H      1.595869   -1.918421   -1.804036
H      5.884066   -3.503282   -0.296924
H      6.227048   -2.457697    1.890629
H      4.491162   -1.017368    2.876202
H      2.394856   -0.595275    1.656287
H      1.580591    2.816560   -3.078510
H      0.875239    5.130061   -2.589396
H     -0.364023    6.594304   -0.858756
H     -0.102086    6.322085    0.853946
H      2.345280    6.925473    0.554069
H      1.243119    8.243362    0.111367
H      2.014996    7.276227   -1.159837
H      0.865191    4.246083    1.639860
H      1.561291    1.928324    1.145445
H     -0.582012    0.825618   -0.165165
H     -1.955615   -1.554879   -1.630325
H     -4.164999   -0.845635   -0.450717
H     -5.515574    1.204946   -0.225213
H     -4.411544    4.205796    1.663191
H     -5.473898    3.623034    0.396369
H     -6.843041    2.376480    2.111499
H     -5.768377    2.975317    3.388100
H     -6.762474    4.115432    2.444324
H     -2.764493    2.714653    2.734987
H     -1.397260    0.662806    2.511346
