
  xtb     03162221543D
 xtb: 6.3.3 (4ae9cef)
 66 70  0     0  0            999 V2000
    1.6853   -2.2311    0.9350 C   0  0  0  0  0  0  0  0  0  0  0  0
    2.0332   -2.6693   -0.4633 C   0  0  0  0  0  0  0  0  0  0  0  0
    1.4748   -3.8678   -0.7360 F   0  0  0  0  0  0  0  0  0  0  0  0
    3.3594   -2.8436   -0.6083 F   0  0  0  0  0  0  0  0  0  0  0  0
    1.6567   -1.8726   -1.4714 F   0  0  0  0  0  0  0  0  0  0  0  0
    1.9602   -3.2078    1.8939 C   0  0  0  0  0  0  0  0  0  0  0  0
    1.6844   -2.9907    3.2274 C   0  0  0  0  0  0  0  0  0  0  0  0
    1.1118   -1.7897    3.6140 C   0  0  0  0  0  0  0  0  0  0  0  0
    0.8459   -0.8205    2.6693 C   0  0  0  0  0  0  0  0  0  0  0  0
    1.1500   -1.0017    1.3191 C   0  0  0  0  0  0  0  0  0  0  0  0
    0.8058    0.1221    0.3745 C   0  0  0  0  0  0  0  0  0  0  0  0
   -0.7328    0.1506    0.1270 C   0  0  0  0  0  0  0  0  0  0  0  0
   -1.1022   -0.8372   -0.9563 C   0  0  0  0  0  0  0  0  0  0  0  0
   -1.1395   -0.6132   -2.3334 C   0  0  0  0  0  0  0  0  0  0  0  0
   -0.8576    0.7316   -2.9448 C   0  0  0  0  0  0  0  0  0  0  0  0
   -0.7284    0.6745   -4.2798 F   0  0  0  0  0  0  0  0  0  0  0  0
   -1.8321    1.6312   -2.7220 F   0  0  0  0  0  0  0  0  0  0  0  0
    0.2867    1.2761   -2.5009 F   0  0  0  0  0  0  0  0  0  0  0  0
   -1.4530   -1.6508   -3.2075 C   0  0  0  0  0  0  0  0  0  0  0  0
   -1.7038   -2.9234   -2.7364 C   0  0  0  0  0  0  0  0  0  0  0  0
   -1.6492   -3.1657   -1.3751 C   0  0  0  0  0  0  0  0  0  0  0  0
   -1.3597   -2.1328   -0.5071 C   0  0  0  0  0  0  0  0  0  0  0  0
   -1.0329    1.5634   -0.0319 N   0  0  0  0  0  0  0  0  0  0  0  0
   -2.2735    2.1580    0.0620 C   0  0  0  0  0  0  0  0  0  0  0  0
   -3.4624    1.3552   -0.2101 C   0  0  0  0  0  0  0  0  0  0  0  0
   -4.7319    1.8287   -0.4787 C   0  0  0  0  0  0  0  0  0  0  0  0
   -5.1764    3.2413   -0.5284 C   0  0  0  0  0  0  0  0  0  0  0  0
   -5.5269    0.6775   -0.6989 C   0  0  0  0  0  0  0  0  0  0  0  0
   -4.7032   -0.3946   -0.5454 C   0  0  0  0  0  0  0  0  0  0  0  0
   -3.4579   -0.0038   -0.2494 O   0  0  0  0  0  0  0  0  0  0  0  0
   -2.3637    3.3432    0.3191 O   0  0  0  0  0  0  0  0  0  0  0  0
    0.0959    2.3670    0.4023 C   0  0  0  0  0  0  0  0  0  0  0  0
    0.7556    3.1667   -0.7410 C   0  0  0  0  0  0  0  0  0  0  0  0
   -0.1119    3.9175   -1.3895 O   0  0  0  0  0  0  0  0  0  0  0  0
    1.9303    3.1178   -0.9778 O   0  0  0  0  0  0  0  0  0  0  0  0
    1.0395    1.4297    0.9503 N   0  0  0  0  0  0  0  0  0  0  0  0
    2.1200    1.8586    1.6671 C   0  0  0  0  0  0  0  0  0  0  0  0
    3.2045    0.8483    1.8010 C   0  0  0  0  0  0  0  0  0  0  0  0
    4.0467    0.3183    0.8570 C   0  0  0  0  0  0  0  0  0  0  0  0
    4.1060    0.6179   -0.5982 C   0  0  0  0  0  0  0  0  0  0  0  0
    4.9114   -0.5537    1.5735 C   0  0  0  0  0  0  0  0  0  0  0  0
    4.5376   -0.4781    2.8772 C   0  0  0  0  0  0  0  0  0  0  0  0
    3.5152    0.3761    3.0316 O   0  0  0  0  0  0  0  0  0  0  0  0
    2.1557    2.9600    2.1654 O   0  0  0  0  0  0  0  0  0  0  0  0
    2.3933   -4.1436    1.5748 H   0  0  0  0  0  0  0  0  0  0  0  0
    1.9099   -3.7529    3.9561 H   0  0  0  0  0  0  0  0  0  0  0  0
    0.8770   -1.6058    4.6508 H   0  0  0  0  0  0  0  0  0  0  0  0
    0.4148    0.1189    2.9804 H   0  0  0  0  0  0  0  0  0  0  0  0
    1.3330    0.0438   -0.5795 H   0  0  0  0  0  0  0  0  0  0  0  0
   -1.2295   -0.2011    1.0452 H   0  0  0  0  0  0  0  0  0  0  0  0
   -1.4880   -1.4556   -4.2678 H   0  0  0  0  0  0  0  0  0  0  0  0
   -1.9352   -3.7178   -3.4277 H   0  0  0  0  0  0  0  0  0  0  0  0
   -1.8309   -4.1563   -0.9883 H   0  0  0  0  0  0  0  0  0  0  0  0
   -1.3337   -2.3293    0.5549 H   0  0  0  0  0  0  0  0  0  0  0  0
   -5.3312    3.6177    0.4819 H   0  0  0  0  0  0  0  0  0  0  0  0
   -4.4055    3.8572   -0.9840 H   0  0  0  0  0  0  0  0  0  0  0  0
   -6.1065    3.3284   -1.0838 H   0  0  0  0  0  0  0  0  0  0  0  0
   -6.5701    0.6591   -0.9388 H   0  0  0  0  0  0  0  0  0  0  0  0
   -4.8763   -1.4509   -0.6145 H   0  0  0  0  0  0  0  0  0  0  0  0
   -0.2292    3.1097    1.1491 H   0  0  0  0  0  0  0  0  0  0  0  0
    0.3236    4.4291   -2.0913 H   0  0  0  0  0  0  0  0  0  0  0  0
    3.4392    1.4365   -0.8534 H   0  0  0  0  0  0  0  0  0  0  0  0
    5.1216    0.9002   -0.8699 H   0  0  0  0  0  0  0  0  0  0  0  0
    3.8451   -0.2617   -1.1857 H   0  0  0  0  0  0  0  0  0  0  0  0
    5.6989   -1.1470    1.1568 H   0  0  0  0  0  0  0  0  0  0  0  0
    4.9062   -0.9622    3.7598 H   0  0  0  0  0  0  0  0  0  0  0  0
  1  2  1  0  0  0  0
  2  3  1  0  0  0  0
  2  4  1  0  0  0  0
  2  5  1  0  0  0  0
  1  6  4  0  0  0  0
  6  7  4  0  0  0  0
  7  8  4  0  0  0  0
  8  9  4  0  0  0  0
  1 10  4  0  0  0  0
  9 10  4  0  0  0  0
 10 11  1  0  0  0  0
 11 12  1  0  0  0  0
 12 13  1  0  0  0  0
 13 14  4  0  0  0  0
 14 15  1  0  0  0  0
 15 16  1  0  0  0  0
 15 17  1  0  0  0  0
 15 18  1  0  0  0  0
 14 19  4  0  0  0  0
 19 20  4  0  0  0  0
 20 21  4  0  0  0  0
 13 22  4  0  0  0  0
 21 22  4  0  0  0  0
 12 23  1  0  0  0  0
 23 24  1  0  0  0  0
 24 25  1  0  0  0  0
 25 26  4  0  0  0  0
 26 27  1  0  0  0  0
 26 28  4  0  0  0  0
 28 29  2  0  0  0  0
 25 30  1  0  0  0  0
 29 30  1  0  0  0  0
 24 31  2  0  0  0  0
 23 32  1  0  0  0  0
 32 33  1  0  0  0  0
 33 34  1  0  0  0  0
 33 35  2  0  0  0  0
 11 36  1  0  0  0  0
 32 36  1  0  0  0  0
 36 37  1  0  0  0  0
 37 38  1  0  0  0  0
 38 39  2  0  0  0  0
 39 40  1  0  0  0  0
 39 41  4  0  0  0  0
 41 42  2  0  0  0  0
 38 43  1  0  0  0  0
 42 43  1  0  0  0  0
 37 44  2  0  0  0  0
  6 45  1  0  0  0  0
  7 46  1  0  0  0  0
  8 47  1  0  0  0  0
  9 48  1  0  0  0  0
 11 49  1  0  0  0  0
 12 50  1  0  0  0  0
 19 51  1  0  0  0  0
 20 52  1  0  0  0  0
 21 53  1  0  0  0  0
 22 54  1  0  0  0  0
 27 55  1  0  0  0  0
 27 56  1  0  0  0  0
 27 57  1  0  0  0  0
 28 58  1  0  0  0  0
 29 59  1  0  0  0  0
 32 60  1  0  0  0  0
 34 61  1  0  0  0  0
 40 62  1  0  0  0  0
 40 63  1  0  0  0  0
 40 64  1  0  0  0  0
 41 65  1  0  0  0  0
 42 66  1  0  0  0  0
M  END
