114

C      1.904037    1.868730   -2.118177
C      0.900348    1.096140   -2.955696
F      0.762965    1.574273   -4.223126
F     -0.357902    1.089327   -2.445353
F      1.251879   -0.210395   -3.095946
C      2.937868    2.545096   -2.817412
C      3.920324    3.267463   -2.151125
C      3.912855    3.314132   -0.763956
C      2.914303    2.653789   -0.047363
C      1.890888    1.921936   -0.697012
C      0.828503    1.305315    0.212861
C     -0.516669    2.101254    0.167244
C     -0.629719    3.121889    1.305358
C     -0.650788    4.526283    1.073366
C     -0.608623    5.160819   -0.315601
F     -0.173137    6.459828   -0.289201
F      0.238669    4.520422   -1.177183
F     -1.818063    5.190319   -0.931409
C     -0.764396    5.394544    2.180553
C     -0.823226    4.914164    3.487778
C     -0.791395    3.544577    3.717614
C     -0.709652    2.663140    2.638147
N     -1.558951    1.071647    0.157329
C     -2.866820    1.413301   -0.143392
C     -3.870821    0.341555   -0.297149
C     -3.916252   -0.468477   -1.438660
C     -4.848662   -1.512571   -1.526941
C     -4.896384   -2.427399   -2.767186
C     -5.799278   -3.670313   -2.587237
C     -5.440065   -1.630072   -3.973197
C     -3.481023   -2.949435   -3.109929
C     -5.759064   -1.659650   -0.454116
C     -5.770697   -0.820326    0.680828
C     -6.785258   -1.053017    1.808480
C     -6.432590   -2.381619    2.519183
C     -8.228924   -1.152202    1.250163
C     -6.787796    0.060635    2.877688
C     -4.800313    0.187518    0.736257
O     -3.267190    2.579721   -0.192266
C     -0.985010   -0.273178    0.114605
C     -1.287028   -1.082946    1.421906
O     -2.114663   -0.471480    2.289247
O     -0.826610   -2.175471    1.729136
N      0.450602   -0.075264   -0.056029
C      1.248883   -1.172613   -0.312006
C      2.703264   -1.090892   -0.054261
C      3.181421   -0.755664    1.217889
C      4.554774   -0.729262    1.486853
C      5.127964   -0.375858    2.874768
C      5.986837    0.906986    2.765970
C      4.055290   -0.112355    3.951632
C      6.014288   -1.530452    3.384613
C      5.427535   -1.063501    0.420728
C      4.979349   -1.456450   -0.856854
C      5.944326   -1.910816   -1.967542
C      7.435142   -1.892086   -1.556099
C      5.599856   -3.351918   -2.393159
C      5.798031   -0.962727   -3.177490
C      3.587019   -1.464035   -1.069544
O      0.790510   -2.226702   -0.742354
H      2.971255    2.503986   -3.906456
H      4.694036    3.796841   -2.707266
H      4.696607    3.863731   -0.249778
H      2.953310    2.704036    1.033871
H      1.203159    1.285735    1.238635
H     -0.643654    2.620835   -0.789835
H     -0.815420    6.472540    2.020219
H     -0.927444    5.603432    4.315531
H     -0.858388    3.157189    4.727665
H     -0.698745    1.600073    2.851638
H     -3.207342   -0.278032   -2.243016
H     -5.756613   -4.328340   -3.468328
H     -6.851910   -3.384357   -2.461784
H     -5.498263   -4.271821   -1.721375
H     -5.515616   -2.267200   -4.860512
H     -4.787833   -0.783482   -4.227930
H     -6.439809   -1.230159   -3.759819
H     -3.017841   -3.440889   -2.246590
H     -2.810471   -2.145122   -3.439068
H     -3.516212   -3.680971   -3.928031
H     -6.495204   -2.462015   -0.493876
H     -7.106813   -2.571616    3.362693
H     -6.515234   -3.235210    1.840571
H     -5.407603   -2.354091    2.901790
H     -8.496882   -0.253633    0.675094
H     -8.951649   -1.266306    2.066641
H     -8.367043   -2.019661    0.594645
H     -7.009220    1.041366    2.440168
H     -5.823102    0.133498    3.389119
H     -7.539284   -0.131737    3.647096
H     -4.727187    0.873430    1.576793
H     -1.384239   -0.834628   -0.731303
H     -2.253007   -1.154159    2.979790
H      2.452230   -0.542171    1.996459
H      6.766078    0.834557    1.986243
H      5.368207    1.786697    2.513649
H      6.491621    1.128571    3.716909
H      4.518991    0.121393    4.913103
H      3.411278    0.730159    3.695352
H      3.424188   -0.989657    4.107739
H      5.449255   -2.463543    3.413400
H      6.898560   -1.695363    2.761055
H      6.380804   -1.336245    4.396112
H      6.494716   -1.037567    0.608328
H      7.626785   -2.577820   -0.719323
H      7.766037   -0.890557   -1.265530
H      8.078648   -2.208307   -2.387663
H      4.613442   -3.413022   -2.861370
H      5.590611   -4.025225   -1.531020
H      6.324593   -3.736800   -3.121169
H      4.788186   -0.995914   -3.606838
H      6.497408   -1.244003   -3.976094
H      6.010559    0.075203   -2.893044
H      3.170703   -1.769308   -2.027785
