
  xtb     03172201313D
 xtb: 6.3.3 (4ae9cef)
 66 72  0     0  0            999 V2000
   -1.7346    2.1047   -1.9400 C   0  0  0  0  0  0  0  0  0  0  0  0
   -2.8280    2.9229   -1.9477 C   0  0  0  0  0  0  0  0  0  0  0  0
   -3.6895    2.9919   -0.8335 C   0  0  0  0  0  0  0  0  0  0  0  0
   -4.8256    3.8271   -0.8091 C   0  0  0  0  0  0  0  0  0  0  0  0
   -5.6388    3.8680    0.2885 C   0  0  0  0  0  0  0  0  0  0  0  0
   -5.3533    3.0770    1.4129 C   0  0  0  0  0  0  0  0  0  0  0  0
   -4.2608    2.2566    1.4200 C   0  0  0  0  0  0  0  0  0  0  0  0
   -3.4027    2.1902    0.3022 C   0  0  0  0  0  0  0  0  0  0  0  0
   -2.2696    1.3545    0.2766 C   0  0  0  0  0  0  0  0  0  0  0  0
   -1.4440    1.3097   -0.8172 C   0  0  0  0  0  0  0  0  0  0  0  0
   -0.2382    0.4036   -0.8285 C   0  0  0  0  0  0  0  0  0  0  0  0
    0.7361    0.6786    0.3392 C   0  0  0  0  0  0  0  0  0  0  0  0
    2.1793    0.7430   -0.1103 C   0  0  0  0  0  0  0  0  0  0  0  0
    2.5257    1.6257   -1.1019 C   0  0  0  0  0  0  0  0  0  0  0  0
    3.8512    1.7225   -1.5653 C   0  0  0  0  0  0  0  0  0  0  0  0
    4.2229    2.6202   -2.5888 C   0  0  0  0  0  0  0  0  0  0  0  0
    5.5170    2.6855   -3.0213 C   0  0  0  0  0  0  0  0  0  0  0  0
    6.4992    1.8585   -2.4521 C   0  0  0  0  0  0  0  0  0  0  0  0
    6.1714    0.9810   -1.4574 C   0  0  0  0  0  0  0  0  0  0  0  0
    4.8447    0.8899   -0.9874 C   0  0  0  0  0  0  0  0  0  0  0  0
    4.4690    0.0106    0.0466 C   0  0  0  0  0  0  0  0  0  0  0  0
    3.1740   -0.0575    0.4771 C   0  0  0  0  0  0  0  0  0  0  0  0
    0.4640   -0.4101    1.2658 N   0  0  0  0  0  0  0  0  0  0  0  0
    0.4469   -0.2217    2.6118 C   0  0  0  0  0  0  0  0  0  0  0  0
    0.0164   -1.4253    3.3928 C   0  0  0  0  0  0  0  0  0  0  0  0
    0.8753   -2.2451    4.0656 C   0  0  0  0  0  0  0  0  0  0  0  0
    0.0522   -3.5120    4.8890 S   0  0  0  0  0  0  0  0  0  0  0  0
   -1.4613   -2.9349    4.3235 C   0  0  0  0  0  0  0  0  0  0  0  0
   -1.3370   -1.8283    3.5473 C   0  0  0  0  0  0  0  0  0  0  0  0
    0.7720    0.8212    3.1301 O   0  0  0  0  0  0  0  0  0  0  0  0
   -0.0247   -1.5555    0.5419 C   0  0  0  0  0  0  0  0  0  0  0  0
    1.1443   -2.5032    0.1349 C   0  0  0  0  0  0  0  0  0  0  0  0
    1.7201   -3.1285    1.1624 O   0  0  0  0  0  0  0  0  0  0  0  0
    1.4826   -2.6688   -0.9955 O   0  0  0  0  0  0  0  0  0  0  0  0
   -0.6509   -0.9823   -0.6182 N   0  0  0  0  0  0  0  0  0  0  0  0
   -1.2502   -1.6791   -1.6243 C   0  0  0  0  0  0  0  0  0  0  0  0
   -1.5764   -3.0922   -1.2854 C   0  0  0  0  0  0  0  0  0  0  0  0
   -2.4214   -3.4765   -0.2887 C   0  0  0  0  0  0  0  0  0  0  0  0
   -2.5982   -5.1842   -0.2129 S   0  0  0  0  0  0  0  0  0  0  0  0
   -1.5183   -5.3843   -1.5362 C   0  0  0  0  0  0  0  0  0  0  0  0
   -1.0649   -4.1996   -2.0113 C   0  0  0  0  0  0  0  0  0  0  0  0
   -1.5291   -1.1659   -2.6835 O   0  0  0  0  0  0  0  0  0  0  0  0
   -1.0882    2.0461   -2.8024 H   0  0  0  0  0  0  0  0  0  0  0  0
   -3.0511    3.5285   -2.8141 H   0  0  0  0  0  0  0  0  0  0  0  0
   -5.0405    4.4348   -1.6764 H   0  0  0  0  0  0  0  0  0  0  0  0
   -6.5073    4.5100    0.3007 H   0  0  0  0  0  0  0  0  0  0  0  0
   -6.0057    3.1241    2.2725 H   0  0  0  0  0  0  0  0  0  0  0  0
   -4.0357    1.6495    2.2859 H   0  0  0  0  0  0  0  0  0  0  0  0
   -2.0589    0.7476    1.1470 H   0  0  0  0  0  0  0  0  0  0  0  0
    0.2678    0.4741   -1.7972 H   0  0  0  0  0  0  0  0  0  0  0  0
    0.4863    1.6168    0.8500 H   0  0  0  0  0  0  0  0  0  0  0  0
    1.7767    2.2708   -1.5400 H   0  0  0  0  0  0  0  0  0  0  0  0
    3.4632    3.2535   -3.0242 H   0  0  0  0  0  0  0  0  0  0  0  0
    5.7956    3.3739   -3.8057 H   0  0  0  0  0  0  0  0  0  0  0  0
    7.5167    1.9238   -2.8085 H   0  0  0  0  0  0  0  0  0  0  0  0
    6.9233    0.3430   -1.0154 H   0  0  0  0  0  0  0  0  0  0  0  0
    5.2247   -0.6135    0.5008 H   0  0  0  0  0  0  0  0  0  0  0  0
    2.9184   -0.7221    1.2885 H   0  0  0  0  0  0  0  0  0  0  0  0
    1.9397   -2.1510    4.1604 H   0  0  0  0  0  0  0  0  0  0  0  0
   -2.3608   -3.4465    4.6019 H   0  0  0  0  0  0  0  0  0  0  0  0
   -2.1697   -1.3016    3.1158 H   0  0  0  0  0  0  0  0  0  0  0  0
   -0.7365   -2.1384    1.1446 H   0  0  0  0  0  0  0  0  0  0  0  0
    1.3492   -2.8888    2.0331 H   0  0  0  0  0  0  0  0  0  0  0  0
   -2.9836   -2.8579    0.3836 H   0  0  0  0  0  0  0  0  0  0  0  0
   -1.2909   -6.3724   -1.8820 H   0  0  0  0  0  0  0  0  0  0  0  0
   -0.3794   -4.0921   -2.8307 H   0  0  0  0  0  0  0  0  0  0  0  0
  1  2  2  0  0  0  0
  2  3  4  0  0  0  0
  3  4  4  0  0  0  0
  4  5  2  0  0  0  0
  5  6  4  0  0  0  0
  6  7  2  0  0  0  0
  3  8  4  0  0  0  0
  7  8  4  0  0  0  0
  8  9  4  0  0  0  0
  1 10  4  0  0  0  0
  9 10  2  0  0  0  0
 10 11  1  0  0  0  0
 11 12  1  0  0  0  0
 12 13  1  0  0  0  0
 13 14  2  0  0  0  0
 14 15  4  0  0  0  0
 15 16  4  0  0  0  0
 16 17  2  0  0  0  0
 17 18  4  0  0  0  0
 18 19  2  0  0  0  0
 15 20  4  0  0  0  0
 19 20  4  0  0  0  0
 20 21  4  0  0  0  0
 13 22  4  0  0  0  0
 21 22  2  0  0  0  0
 12 23  1  0  0  0  0
 23 24  4  0  0  0  0
 24 25  1  0  0  0  0
 25 26  2  0  0  0  0
 26 27  1  0  0  0  0
 27 28  1  0  0  0  0
 25 29  4  0  0  0  0
 28 29  2  0  0  0  0
 24 30  2  0  0  0  0
 23 31  1  0  0  0  0
 31 32  1  0  0  0  0
 32 33  1  0  0  0  0
 32 34  2  0  0  0  0
 11 35  1  0  0  0  0
 31 35  1  0  0  0  0
 35 36  1  0  0  0  0
 36 37  1  0  0  0  0
 37 38  2  0  0  0  0
 38 39  1  0  0  0  0
 39 40  1  0  0  0  0
 37 41  4  0  0  0  0
 40 41  2  0  0  0  0
 36 42  2  0  0  0  0
  1 43  1  0  0  0  0
  2 44  1  0  0  0  0
  4 45  1  0  0  0  0
  5 46  1  0  0  0  0
  6 47  1  0  0  0  0
  7 48  1  0  0  0  0
  9 49  1  0  0  0  0
 11 50  1  0  0  0  0
 12 51  1  0  0  0  0
 14 52  1  0  0  0  0
 16 53  1  0  0  0  0
 17 54  1  0  0  0  0
 18 55  1  0  0  0  0
 19 56  1  0  0  0  0
 21 57  1  0  0  0  0
 22 58  1  0  0  0  0
 26 59  1  0  0  0  0
 28 60  1  0  0  0  0
 29 61  1  0  0  0  0
 31 62  1  0  0  0  0
 33 63  1  0  0  0  0
 38 64  1  0  0  0  0
 40 65  1  0  0  0  0
 41 66  1  0  0  0  0
M  END
