70

C     -1.790349   -3.170522    1.788744
O     -0.993905   -2.978988    2.887582
C     -1.775486   -2.686788    4.048052
C     -2.652316   -4.271662    1.742625
C     -3.445936   -4.491192    0.618700
C     -3.369818   -3.618403   -0.462759
C     -2.494216   -2.529136   -0.423035
C     -1.678699   -2.291257    0.699140
C     -0.704610   -1.125197    0.737027
C      0.435576   -1.233642   -0.309489
C      1.611193   -2.175561   -0.126241
C      1.976867   -2.665126    1.136870
C      3.053000   -3.541225    1.288167
C      3.782661   -3.943940    0.177349
C      3.448612   -3.460459   -1.086781
C      2.377468   -2.570626   -1.246231
O      1.985977   -2.050469   -2.456130
C      2.868564   -2.228103   -3.557925
N      0.795991    0.174563   -0.564508
C      1.765755    0.777300    0.239302
C      2.481090    1.937596   -0.364413
C      2.637613    2.053846   -1.750200
C      3.315694    3.153197   -2.287053
C      3.845976    4.134935   -1.441716
C      4.541231    5.261851   -1.994120
N      5.099939    6.174990   -2.442643
C      3.693328    4.015963   -0.057134
C      3.020999    2.914215    0.482241
O      2.017020    0.437875    1.390804
C     -0.466749    0.907660   -0.541272
C     -0.978281    1.043622   -2.001592
O     -2.195628    0.509322   -2.237495
O     -0.374257    1.568925   -2.926823
N     -1.334155    0.167695    0.384812
C     -2.178945    0.776475    1.298562
C     -2.631161    2.155995    1.030120
C     -3.489831    2.430337   -0.035641
C     -3.913563    3.742738   -0.261356
C     -3.492826    4.773365    0.589173
C     -3.946985    6.114978    0.367729
N     -4.321119    7.199035    0.188343
C     -2.644488    4.488247    1.667038
C     -2.216962    3.177448    1.892946
O     -2.555245    0.263202    2.346189
H     -2.614725   -2.017316    3.826739
H     -1.124692   -2.185282    4.770928
H     -2.137501   -3.613875    4.505306
H     -2.700922   -4.968337    2.574276
H     -4.117461   -5.345201    0.584753
H     -3.985828   -3.789620   -1.342160
H     -2.458544   -1.864756   -1.282109
H     -0.292716   -0.983663    1.743176
H     -0.041978   -1.559008   -1.246467
H      1.443312   -2.358489    2.032913
H      3.319193   -3.901624    2.278023
H      4.616240   -4.631382    0.294987
H      4.038190   -3.804553   -1.929924
H      3.871201   -1.847122   -3.331132
H      2.903086   -3.279127   -3.866177
H      2.474828   -1.645618   -4.397507
H      2.254963    1.287398   -2.421089
H      3.432801    3.227605   -3.365886
H      4.104648    4.770257    0.611326
H      2.919780    2.818210    1.562704
H     -0.323421    1.927619   -0.167151
H     -2.326715    0.639651   -3.200495
H     -3.856289    1.624241   -0.667123
H     -4.587638    3.953881   -1.091102
H     -2.327250    5.277019    2.346282
H     -1.591587    2.946013    2.749950
