
  xtb     03172201533D
 xtb: 6.3.3 (4ae9cef)
 82 88  0     0  0            999 V2000
   -2.4326   -2.2807   -0.0167 C   0  0  0  0  0  0  0  0  0  0  0  0
   -2.2512   -2.9149    1.1802 O   0  0  0  0  0  0  0  0  0  0  0  0
   -2.9880   -4.0834    1.4417 C   0  0  0  0  0  0  0  0  0  0  0  0
   -3.3659   -2.6609   -0.9721 C   0  0  0  0  0  0  0  0  0  0  0  0
   -3.4795   -1.9505   -2.1555 C   0  0  0  0  0  0  0  0  0  0  0  0
   -2.6591   -0.8677   -2.4066 C   0  0  0  0  0  0  0  0  0  0  0  0
   -1.7213   -0.4885   -1.4619 C   0  0  0  0  0  0  0  0  0  0  0  0
   -1.6123   -1.1716   -0.2625 C   0  0  0  0  0  0  0  0  0  0  0  0
   -0.5726   -0.7856    0.7539 C   0  0  0  0  0  0  0  0  0  0  0  0
    0.8295   -1.2333    0.2862 C   0  0  0  0  0  0  0  0  0  0  0  0
    1.1709   -2.5849    0.8474 C   0  0  0  0  0  0  0  0  0  0  0  0
    1.7267   -2.7292    2.1049 C   0  0  0  0  0  0  0  0  0  0  0  0
    1.9900   -3.9855    2.6243 C   0  0  0  0  0  0  0  0  0  0  0  0
    1.6828   -5.1066    1.8786 C   0  0  0  0  0  0  0  0  0  0  0  0
    1.1129   -4.9822    0.6222 C   0  0  0  0  0  0  0  0  0  0  0  0
    0.8476   -3.7241    0.0965 C   0  0  0  0  0  0  0  0  0  0  0  0
    0.2685   -3.4982   -1.1158 O   0  0  0  0  0  0  0  0  0  0  0  0
   -0.0339   -4.5970   -1.9379 C   0  0  0  0  0  0  0  0  0  0  0  0
    1.7086   -0.1751    0.7644 N   0  0  0  0  0  0  0  0  0  0  0  0
    3.0404   -0.2480    0.4523 C   0  0  0  0  0  0  0  0  0  0  0  0
    3.8692    0.8665    0.9593 C   0  0  0  0  0  0  0  0  0  0  0  0
    3.8775    1.5390    2.1573 C   0  0  0  0  0  0  0  0  0  0  0  0
    4.9886    2.3978    2.1203 C   0  0  0  0  0  0  0  0  0  0  0  0
    5.5949    2.1969    0.8999 C   0  0  0  0  0  0  0  0  0  0  0  0
    6.7715    2.7965    0.3010 C   0  0  0  0  0  0  0  0  0  0  0  0
    7.2436    2.3291   -0.9272 C   0  0  0  0  0  0  0  0  0  0  0  0
    8.3698    2.8867   -1.4998 C   0  0  0  0  0  0  0  0  0  0  0  0
    9.0418    3.9157   -0.8598 C   0  0  0  0  0  0  0  0  0  0  0  0
    8.5786    4.3871    0.3583 C   0  0  0  0  0  0  0  0  0  0  0  0
    7.4526    3.8354    0.9374 C   0  0  0  0  0  0  0  0  0  0  0  0
    4.9166    1.2593    0.2109 O   0  0  0  0  0  0  0  0  0  0  0  0
    3.5142   -1.1991   -0.1319 O   0  0  0  0  0  0  0  0  0  0  0  0
    0.9690    1.0518    0.9345 C   0  0  0  0  0  0  0  0  0  0  0  0
    1.1946    2.0212   -0.2483 C   0  0  0  0  0  0  0  0  0  0  0  0
    1.8961    3.0879    0.1138 O   0  0  0  0  0  0  0  0  0  0  0  0
    0.8704    1.7702   -1.3764 O   0  0  0  0  0  0  0  0  0  0  0  0
   -0.4205    0.6445    0.9505 N   0  0  0  0  0  0  0  0  0  0  0  0
   -1.3276    1.6375    0.7655 C   0  0  0  0  0  0  0  0  0  0  0  0
   -2.7435    1.2629    0.8620 C   0  0  0  0  0  0  0  0  0  0  0  0
   -3.3933    0.3082    1.6091 C   0  0  0  0  0  0  0  0  0  0  0  0
   -4.7618    0.4696    1.3458 C   0  0  0  0  0  0  0  0  0  0  0  0
   -4.8674    1.5164    0.4545 C   0  0  0  0  0  0  0  0  0  0  0  0
   -6.0235    2.1313   -0.1678 C   0  0  0  0  0  0  0  0  0  0  0  0
   -7.3080    1.6290    0.0469 C   0  0  0  0  0  0  0  0  0  0  0  0
   -8.4005    2.2357   -0.5413 C   0  0  0  0  0  0  0  0  0  0  0  0
   -8.2316    3.3478   -1.3507 C   0  0  0  0  0  0  0  0  0  0  0  0
   -6.9596    3.8506   -1.5725 C   0  0  0  0  0  0  0  0  0  0  0  0
   -5.8621    3.2498   -0.9880 C   0  0  0  0  0  0  0  0  0  0  0  0
   -3.6419    1.9962    0.1790 O   0  0  0  0  0  0  0  0  0  0  0  0
   -0.9448    2.7863    0.5941 O   0  0  0  0  0  0  0  0  0  0  0  0
   -4.0632   -3.8817    1.4890 H   0  0  0  0  0  0  0  0  0  0  0  0
   -2.6433   -4.4348    2.4132 H   0  0  0  0  0  0  0  0  0  0  0  0
   -2.7954   -4.8565    0.6915 H   0  0  0  0  0  0  0  0  0  0  0  0
   -4.0119   -3.5085   -0.8053 H   0  0  0  0  0  0  0  0  0  0  0  0
   -4.2148   -2.2564   -2.8850 H   0  0  0  0  0  0  0  0  0  0  0  0
   -2.7425   -0.3222   -3.3335 H   0  0  0  0  0  0  0  0  0  0  0  0
   -1.0668    0.3486   -1.6564 H   0  0  0  0  0  0  0  0  0  0  0  0
   -0.7976   -1.2650    1.7143 H   0  0  0  0  0  0  0  0  0  0  0  0
    0.8648   -1.2827   -0.8096 H   0  0  0  0  0  0  0  0  0  0  0  0
    1.9655   -1.8450    2.6770 H   0  0  0  0  0  0  0  0  0  0  0  0
    2.4318   -4.0854    3.6038 H   0  0  0  0  0  0  0  0  0  0  0  0
    1.8843   -6.0923    2.2713 H   0  0  0  0  0  0  0  0  0  0  0  0
    0.8816   -5.8738    0.0608 H   0  0  0  0  0  0  0  0  0  0  0  0
    0.8639   -5.1669   -2.1964 H   0  0  0  0  0  0  0  0  0  0  0  0
   -0.4672   -4.1725   -2.8422 H   0  0  0  0  0  0  0  0  0  0  0  0
   -0.7656   -5.2634   -1.4682 H   0  0  0  0  0  0  0  0  0  0  0  0
    3.1960    1.4134    2.9737 H   0  0  0  0  0  0  0  0  0  0  0  0
    5.2984    3.0671    2.8958 H   0  0  0  0  0  0  0  0  0  0  0  0
    6.7192    1.5242   -1.4189 H   0  0  0  0  0  0  0  0  0  0  0  0
    8.7280    2.5164   -2.4491 H   0  0  0  0  0  0  0  0  0  0  0  0
    9.9235    4.3492   -1.3079 H   0  0  0  0  0  0  0  0  0  0  0  0
    9.0996    5.1902    0.8588 H   0  0  0  0  0  0  0  0  0  0  0  0
    7.0958    4.2093    1.8842 H   0  0  0  0  0  0  0  0  0  0  0  0
    1.2268    1.5782    1.8624 H   0  0  0  0  0  0  0  0  0  0  0  0
    1.9948    3.6997   -0.6336 H   0  0  0  0  0  0  0  0  0  0  0  0
   -2.9486   -0.4031    2.2733 H   0  0  0  0  0  0  0  0  0  0  0  0
   -5.5610   -0.1062    1.7647 H   0  0  0  0  0  0  0  0  0  0  0  0
   -7.4469    0.7629    0.6749 H   0  0  0  0  0  0  0  0  0  0  0  0
   -9.3908    1.8406   -0.3677 H   0  0  0  0  0  0  0  0  0  0  0  0
   -9.0891    3.8206   -1.8060 H   0  0  0  0  0  0  0  0  0  0  0  0
   -6.8245    4.7173   -2.2027 H   0  0  0  0  0  0  0  0  0  0  0  0
   -4.8694    3.6389   -1.1540 H   0  0  0  0  0  0  0  0  0  0  0  0
  1  2  1  0  0  0  0
  2  3  1  0  0  0  0
  1  4  4  0  0  0  0
  4  5  4  0  0  0  0
  5  6  4  0  0  0  0
  6  7  4  0  0  0  0
  1  8  4  0  0  0  0
  7  8  4  0  0  0  0
  8  9  1  0  0  0  0
  9 10  1  0  0  0  0
 10 11  1  0  0  0  0
 11 12  4  0  0  0  0
 12 13  4  0  0  0  0
 13 14  4  0  0  0  0
 14 15  4  0  0  0  0
 11 16  4  0  0  0  0
 15 16  4  0  0  0  0
 16 17  1  0  0  0  0
 17 18  1  0  0  0  0
 10 19  1  0  0  0  0
 19 20  1  0  0  0  0
 20 21  1  0  0  0  0
 21 22  2  0  0  0  0
 22 23  4  0  0  0  0
 23 24  4  0  0  0  0
 24 25  1  0  0  0  0
 25 26  4  0  0  0  0
 26 27  4  0  0  0  0
 27 28  4  0  0  0  0
 28 29  4  0  0  0  0
 25 30  4  0  0  0  0
 29 30  4  0  0  0  0
 21 31  1  0  0  0  0
 24 31  1  0  0  0  0
 20 32  2  0  0  0  0
 19 33  1  0  0  0  0
 33 34  1  0  0  0  0
 34 35  1  0  0  0  0
 34 36  2  0  0  0  0
  9 37  1  0  0  0  0
 33 37  1  0  0  0  0
 37 38  4  0  0  0  0
 38 39  1  0  0  0  0
 39 40  4  0  0  0  0
 40 41  4  0  0  0  0
 41 42  4  0  0  0  0
 42 43  1  0  0  0  0
 43 44  4  0  0  0  0
 44 45  4  0  0  0  0
 45 46  4  0  0  0  0
 46 47  4  0  0  0  0
 43 48  4  0  0  0  0
 47 48  4  0  0  0  0
 39 49  1  0  0  0  0
 42 49  1  0  0  0  0
 38 50  2  0  0  0  0
  3 51  1  0  0  0  0
  3 52  1  0  0  0  0
  3 53  1  0  0  0  0
  4 54  1  0  0  0  0
  5 55  1  0  0  0  0
  6 56  1  0  0  0  0
  7 57  1  0  0  0  0
  9 58  1  0  0  0  0
 10 59  1  0  0  0  0
 12 60  1  0  0  0  0
 13 61  1  0  0  0  0
 14 62  1  0  0  0  0
 15 63  1  0  0  0  0
 18 64  1  0  0  0  0
 18 65  1  0  0  0  0
 18 66  1  0  0  0  0
 22 67  1  0  0  0  0
 23 68  1  0  0  0  0
 26 69  1  0  0  0  0
 27 70  1  0  0  0  0
 28 71  1  0  0  0  0
 29 72  1  0  0  0  0
 30 73  1  0  0  0  0
 33 74  1  0  0  0  0
 35 75  1  0  0  0  0
 40 76  1  0  0  0  0
 41 77  1  0  0  0  0
 44 78  1  0  0  0  0
 45 79  1  0  0  0  0
 46 80  1  0  0  0  0
 47 81  1  0  0  0  0
 48 82  1  0  0  0  0
M  END
