66

C      2.369280   -2.195034    0.473584
C      2.030981   -2.994802   -0.769114
F      2.821112   -4.089085   -0.959816
F      0.752675   -3.458363   -0.750950
F      2.145160   -2.260102   -1.909878
C      3.396538   -2.678635    1.311705
C      3.737341   -2.018955    2.488668
C      3.046990   -0.874420    2.864594
C      2.031542   -0.374870    2.049233
C      1.682371   -1.004751    0.835930
C      0.582433   -0.399092   -0.037493
C     -0.846733   -0.582893    0.562891
C     -1.690227   -1.537377   -0.287122
C     -2.119847   -2.797399    0.202484
C     -1.745188   -3.302704    1.580731
F     -2.221009   -2.535239    2.595672
F     -0.391096   -3.344748    1.749917
F     -2.180311   -4.569668    1.843047
C     -2.901880   -3.624703   -0.628488
C     -3.251838   -3.226991   -1.916900
C     -2.827304   -1.995799   -2.403683
C     -2.059094   -1.156851   -1.597637
N     -1.416588    0.766211    0.598132
C     -2.690516    0.996731    1.087717
C     -3.252797    2.356291    1.028233
C     -3.455297    2.991997   -0.193630
F     -3.106102    2.394721   -1.342237
C     -4.008603    4.267793   -0.242141
C     -4.375591    4.907522    0.942958
C     -4.194143    4.264972    2.169909
C     -3.641304    2.983721    2.214998
O     -3.388675    0.118268    1.587558
C     -0.422747    1.783301    0.297444
C     -0.011836    2.620161    1.557609
O      0.864591    3.626661    1.301611
O     -0.439666    2.428704    2.688273
N      0.734215    1.058762   -0.208133
C      1.662214    1.733355   -0.968825
C      2.714853    0.994054   -1.666921
C      3.946503    0.774014   -1.044465
C      4.952968    0.105796   -1.742902
C      4.733174   -0.317205   -3.058553
C      3.506082   -0.072123   -3.680924
C      2.500154    0.585647   -2.980243
F      1.319807    0.805648   -3.578865
O      1.655662    2.965484   -1.035770
H      3.937574   -3.587516    1.045647
H      4.528487   -2.410914    3.123621
H      3.294009   -0.367001    3.795886
H      1.513357    0.519091    2.386944
H      0.642105   -0.813816   -1.046633
H     -0.805571   -0.915374    1.604260
H     -3.244854   -4.594788   -0.269594
H     -3.856407   -3.879035   -2.542016
H     -3.103758   -1.685769   -3.410354
H     -1.760045   -0.189316   -1.998992
H     -4.155049    4.755309   -1.200296
H     -4.811695    5.903407    0.910312
H     -4.486754    4.759924    3.093981
H     -3.502006    2.478152    3.169709
H     -0.806824    2.469751   -0.462472
H      1.185581    3.641145    0.365442
H      4.126321    1.117820   -0.028875
H      5.911291   -0.083200   -1.262049
H      5.518915   -0.839235   -3.599914
H      3.327067   -0.396643   -4.702810
