
  xtb     03162221513D
 xtb: 6.3.3 (4ae9cef)
 72 78  0     0  0            999 V2000
   -5.0925    1.7413   -2.2796 C   0  0  0  0  0  0  0  0  0  0  0  0
   -5.3784    0.4435   -2.5951 C   0  0  0  0  0  0  0  0  0  0  0  0
   -4.4216   -0.5542   -2.3655 C   0  0  0  0  0  0  0  0  0  0  0  0
   -3.2091   -0.2459   -1.8122 C   0  0  0  0  0  0  0  0  0  0  0  0
   -2.8882    1.0817   -1.4549 C   0  0  0  0  0  0  0  0  0  0  0  0
   -3.8505    2.0939   -1.7125 C   0  0  0  0  0  0  0  0  0  0  0  0
   -3.5483    3.4369   -1.4052 C   0  0  0  0  0  0  0  0  0  0  0  0
   -2.3378    3.7666   -0.8719 C   0  0  0  0  0  0  0  0  0  0  0  0
   -1.3909    2.7707   -0.5919 C   0  0  0  0  0  0  0  0  0  0  0  0
   -1.6532    1.4510   -0.8477 C   0  0  0  0  0  0  0  0  0  0  0  0
   -0.6442    0.3710   -0.5700 C   0  0  0  0  0  0  0  0  0  0  0  0
    0.6977    0.7504    0.0963 C   0  0  0  0  0  0  0  0  0  0  0  0
    1.7228    1.3088   -0.8548 C   0  0  0  0  0  0  0  0  0  0  0  0
    2.1031    0.5317   -1.9216 C   0  0  0  0  0  0  0  0  0  0  0  0
    3.0094    0.9909   -2.8833 C   0  0  0  0  0  0  0  0  0  0  0  0
    3.5304    2.2477   -2.7790 C   0  0  0  0  0  0  0  0  0  0  0  0
    3.1978    3.0706   -1.6844 C   0  0  0  0  0  0  0  0  0  0  0  0
    2.3013    2.5965   -0.6857 C   0  0  0  0  0  0  0  0  0  0  0  0
    2.0618    3.4341    0.4265 C   0  0  0  0  0  0  0  0  0  0  0  0
    2.6321    4.6727    0.5225 C   0  0  0  0  0  0  0  0  0  0  0  0
    3.4783    5.1511   -0.4871 C   0  0  0  0  0  0  0  0  0  0  0  0
    3.7606    4.3587   -1.5619 C   0  0  0  0  0  0  0  0  0  0  0  0
    1.1178   -0.5410    0.6599 N   0  0  0  0  0  0  0  0  0  0  0  0
    2.3012   -0.6759    1.3115 C   0  0  0  0  0  0  0  0  0  0  0  0
    2.5519   -1.9940    1.9389 C   0  0  0  0  0  0  0  0  0  0  0  0
    3.6613   -2.7662    1.7126 C   0  0  0  0  0  0  0  0  0  0  0  0
    4.7977   -2.5671    0.7801 C   0  0  0  0  0  0  0  0  0  0  0  0
    3.6158   -3.8736    2.4767 O   0  0  0  0  0  0  0  0  0  0  0  0
    2.4975   -3.8078    3.2208 C   0  0  0  0  0  0  0  0  0  0  0  0
    1.7981   -2.6790    2.9377 C   0  0  0  0  0  0  0  0  0  0  0  0
    3.1091    0.2300    1.3538 O   0  0  0  0  0  0  0  0  0  0  0  0
    0.0464   -1.5105    0.5377 C   0  0  0  0  0  0  0  0  0  0  0  0
    0.2593   -2.4867   -0.6315 C   0  0  0  0  0  0  0  0  0  0  0  0
    1.5242   -2.8767   -0.7351 O   0  0  0  0  0  0  0  0  0  0  0  0
   -0.6213   -2.8850   -1.3429 O   0  0  0  0  0  0  0  0  0  0  0  0
   -1.1194   -0.6992    0.3157 N   0  0  0  0  0  0  0  0  0  0  0  0
   -2.0592   -0.4973    1.2994 C   0  0  0  0  0  0  0  0  0  0  0  0
   -2.2613   -1.6914    2.1593 C   0  0  0  0  0  0  0  0  0  0  0  0
   -2.8477   -2.8758    1.7939 C   0  0  0  0  0  0  0  0  0  0  0  0
   -3.4183   -3.3212    0.4972 C   0  0  0  0  0  0  0  0  0  0  0  0
   -2.9073   -3.6999    2.8576 O   0  0  0  0  0  0  0  0  0  0  0  0
   -2.3659   -3.0554    3.9077 C   0  0  0  0  0  0  0  0  0  0  0  0
   -1.9582   -1.8114    3.5456 C   0  0  0  0  0  0  0  0  0  0  0  0
   -2.7002    0.5184    1.4203 O   0  0  0  0  0  0  0  0  0  0  0  0
   -5.8163    2.5235   -2.4600 H   0  0  0  0  0  0  0  0  0  0  0  0
   -6.3334    0.1799   -3.0259 H   0  0  0  0  0  0  0  0  0  0  0  0
   -4.6465   -1.5770   -2.6321 H   0  0  0  0  0  0  0  0  0  0  0  0
   -2.4952   -1.0379   -1.6517 H   0  0  0  0  0  0  0  0  0  0  0  0
   -4.2913    4.1955   -1.6057 H   0  0  0  0  0  0  0  0  0  0  0  0
   -2.0955    4.7951   -0.6485 H   0  0  0  0  0  0  0  0  0  0  0  0
   -0.4467    3.0742   -0.1714 H   0  0  0  0  0  0  0  0  0  0  0  0
   -0.4163   -0.1156   -1.5305 H   0  0  0  0  0  0  0  0  0  0  0  0
    0.5105    1.4277    0.9338 H   0  0  0  0  0  0  0  0  0  0  0  0
    1.7026   -0.4666   -2.0291 H   0  0  0  0  0  0  0  0  0  0  0  0
    3.2802    0.3474   -3.7074 H   0  0  0  0  0  0  0  0  0  0  0  0
    4.2161    2.6254   -3.5238 H   0  0  0  0  0  0  0  0  0  0  0  0
    1.4455    3.0921    1.2430 H   0  0  0  0  0  0  0  0  0  0  0  0
    2.4368    5.2897    1.3874 H   0  0  0  0  0  0  0  0  0  0  0  0
    3.9134    6.1357   -0.3988 H   0  0  0  0  0  0  0  0  0  0  0  0
    4.4301    4.7020   -2.3379 H   0  0  0  0  0  0  0  0  0  0  0  0
    4.6790   -3.1838   -0.1109 H   0  0  0  0  0  0  0  0  0  0  0  0
    4.8360   -1.5219    0.4870 H   0  0  0  0  0  0  0  0  0  0  0  0
    5.7306   -2.8455    1.2655 H   0  0  0  0  0  0  0  0  0  0  0  0
    2.3152   -4.6088    3.9087 H   0  0  0  0  0  0  0  0  0  0  0  0
    0.8923   -2.3569    3.4123 H   0  0  0  0  0  0  0  0  0  0  0  0
   -0.0558   -2.1286    1.4370 H   0  0  0  0  0  0  0  0  0  0  0  0
    1.6341   -3.5158   -1.4591 H   0  0  0  0  0  0  0  0  0  0  0  0
   -2.6409   -3.4032   -0.2610 H   0  0  0  0  0  0  0  0  0  0  0  0
   -3.8969   -4.2883    0.6267 H   0  0  0  0  0  0  0  0  0  0  0  0
   -4.1527   -2.5982    0.1454 H   0  0  0  0  0  0  0  0  0  0  0  0
   -2.3320   -3.5776    4.8426 H   0  0  0  0  0  0  0  0  0  0  0  0
   -1.5046   -1.0659    4.1661 H   0  0  0  0  0  0  0  0  0  0  0  0
  1  2  2  0  0  0  0
  2  3  4  0  0  0  0
  3  4  2  0  0  0  0
  4  5  4  0  0  0  0
  1  6  4  0  0  0  0
  5  6  4  0  0  0  0
  6  7  4  0  0  0  0
  7  8  2  0  0  0  0
  8  9  4  0  0  0  0
  5 10  4  0  0  0  0
  9 10  2  0  0  0  0
 10 11  1  0  0  0  0
 11 12  1  0  0  0  0
 12 13  1  0  0  0  0
 13 14  2  0  0  0  0
 14 15  4  0  0  0  0
 15 16  2  0  0  0  0
 16 17  4  0  0  0  0
 13 18  4  0  0  0  0
 17 18  4  0  0  0  0
 18 19  4  0  0  0  0
 19 20  2  0  0  0  0
 20 21  4  0  0  0  0
 17 22  4  0  0  0  0
 21 22  2  0  0  0  0
 12 23  1  0  0  0  0
 23 24  4  0  0  0  0
 24 25  1  0  0  0  0
 25 26  2  0  0  0  0
 26 27  1  0  0  0  0
 26 28  1  0  0  0  0
 28 29  1  0  0  0  0
 25 30  4  0  0  0  0
 29 30  2  0  0  0  0
 24 31  2  0  0  0  0
 23 32  1  0  0  0  0
 32 33  1  0  0  0  0
 33 34  1  0  0  0  0
 33 35  2  0  0  0  0
 11 36  1  0  0  0  0
 32 36  1  0  0  0  0
 36 37  1  0  0  0  0
 37 38  1  0  0  0  0
 38 39  2  0  0  0  0
 39 40  1  0  0  0  0
 39 41  1  0  0  0  0
 41 42  1  0  0  0  0
 38 43  4  0  0  0  0
 42 43  2  0  0  0  0
 37 44  2  0  0  0  0
  1 45  1  0  0  0  0
  2 46  1  0  0  0  0
  3 47  1  0  0  0  0
  4 48  1  0  0  0  0
  7 49  1  0  0  0  0
  8 50  1  0  0  0  0
  9 51  1  0  0  0  0
 11 52  1  0  0  0  0
 12 53  1  0  0  0  0
 14 54  1  0  0  0  0
 15 55  1  0  0  0  0
 16 56  1  0  0  0  0
 19 57  1  0  0  0  0
 20 58  1  0  0  0  0
 21 59  1  0  0  0  0
 22 60  1  0  0  0  0
 27 61  1  0  0  0  0
 27 62  1  0  0  0  0
 27 63  1  0  0  0  0
 29 64  1  0  0  0  0
 30 65  1  0  0  0  0
 32 66  1  0  0  0  0
 34 67  1  0  0  0  0
 40 68  1  0  0  0  0
 40 69  1  0  0  0  0
 40 70  1  0  0  0  0
 42 71  1  0  0  0  0
 43 72  1  0  0  0  0
M  END
