60

C     -1.974394    1.295488   -1.949380
C     -1.716106    2.394974   -0.938867
F     -2.861066    3.028221   -0.551689
F     -0.910487    3.370219   -1.447958
F     -1.116724    2.012722    0.220238
C     -2.770998    1.679069   -3.056287
C     -3.072782    0.794921   -4.088791
C     -2.580779   -0.498867   -4.044674
C     -1.790438   -0.902649   -2.969550
C     -1.468825   -0.028245   -1.903721
C     -0.598591   -0.624887   -0.801512
C      0.805522    0.040325   -0.679596
C      1.892925   -0.683992   -1.470430
C      2.560995   -0.072857   -2.564931
C      2.236790    1.328740   -3.047418
F      0.907511    1.482867   -3.305719
F      2.555368    2.300153   -2.153541
F      2.868438    1.667666   -4.207699
C      3.566137   -0.791659   -3.244755
C      3.905314   -2.090209   -2.871043
C      3.244716   -2.695407   -1.811632
C      2.252586   -2.001003   -1.119506
N      1.050647    0.093897    0.765528
C      2.060495    0.887479    1.277394
C      2.042795    1.131325    2.713526
C      1.381271    2.206598    3.278698
S      1.506548    2.229492    4.983830
C      2.504092    0.840827    4.984121
C      2.722847    0.362485    3.711217
O      2.919349    1.404113    0.571467
C     -0.096072   -0.409679    1.520898
C      0.215409   -1.793853    2.182245
O      1.517057   -2.150596    2.191517
O     -0.598973   -2.549392    2.692565
N     -1.166406   -0.527205    0.537142
C     -2.419542   -1.030955    0.844930
C     -3.010558   -0.631295    2.124184
C     -3.819755   -1.484598    2.854616
S     -4.390172   -0.787722    4.307185
C     -3.613837    0.694032    3.962865
C     -2.929325    0.651654    2.768102
O     -3.028903   -1.760170    0.067312
H     -3.163476    2.695483   -3.113699
H     -3.691117    1.117192   -4.922860
H     -2.814736   -1.199982   -4.841956
H     -1.434362   -1.932967   -2.964081
H     -0.488945   -1.703838   -0.976332
H      0.761134    1.086574   -0.992851
H      4.096485   -0.335493   -4.080458
H      4.684503   -2.625913   -3.407606
H      3.507323   -3.708606   -1.516207
H      1.764984   -2.507925   -0.291957
H      0.818812    2.977279    2.767560
H      2.888854    0.449299    5.916405
H      3.341541   -0.501321    3.498636
H     -0.370514    0.282131    2.316380
H      1.522906   -3.012184    2.662078
H     -4.089524   -2.502663    2.604306
H     -3.709730    1.529012    4.643940
H     -2.406219    1.511893    2.367822
