
  xtb     03172201203D
 xtb: 6.3.3 (4ae9cef)
 60 64  0     0  0            999 V2000
   -2.1317    1.4466   -2.0213 C   0  0  0  0  0  0  0  0  0  0  0  0
   -2.1417    2.3572   -0.8241 C   0  0  0  0  0  0  0  0  0  0  0  0
   -2.9996    1.9524    0.1362 F   0  0  0  0  0  0  0  0  0  0  0  0
   -2.5207    3.6069   -1.1308 F   0  0  0  0  0  0  0  0  0  0  0  0
   -0.9535    2.4967   -0.2064 F   0  0  0  0  0  0  0  0  0  0  0  0
   -2.8663    1.8758   -3.1237 C   0  0  0  0  0  0  0  0  0  0  0  0
   -2.9462    1.1037   -4.2651 C   0  0  0  0  0  0  0  0  0  0  0  0
   -2.2952   -0.1156   -4.3085 C   0  0  0  0  0  0  0  0  0  0  0  0
   -1.5785   -0.5497   -3.2114 C   0  0  0  0  0  0  0  0  0  0  0  0
   -1.4801    0.2105   -2.0505 C   0  0  0  0  0  0  0  0  0  0  0  0
   -0.6425   -0.3674   -0.9361 C   0  0  0  0  0  0  0  0  0  0  0  0
    0.7626    0.2559   -0.8284 C   0  0  0  0  0  0  0  0  0  0  0  0
    1.8192   -0.6401   -1.4280 C   0  0  0  0  0  0  0  0  0  0  0  0
    2.5107   -0.3184   -2.5967 C   0  0  0  0  0  0  0  0  0  0  0  0
    2.2320    0.9587   -3.3408 C   0  0  0  0  0  0  0  0  0  0  0  0
    0.9337    1.0565   -3.7213 F   0  0  0  0  0  0  0  0  0  0  0  0
    2.4864    2.0699   -2.6356 F   0  0  0  0  0  0  0  0  0  0  0  0
    2.9405    1.0678   -4.4725 F   0  0  0  0  0  0  0  0  0  0  0  0
    3.4748   -1.1825   -3.1031 C   0  0  0  0  0  0  0  0  0  0  0  0
    3.7552   -2.3706   -2.4556 C   0  0  0  0  0  0  0  0  0  0  0  0
    3.0660   -2.7031   -1.3021 C   0  0  0  0  0  0  0  0  0  0  0  0
    2.1051   -1.8473   -0.7987 C   0  0  0  0  0  0  0  0  0  0  0  0
    0.9562    0.4202    0.6072 N   0  0  0  0  0  0  0  0  0  0  0  0
    2.1784    0.7496    1.1065 C   0  0  0  0  0  0  0  0  0  0  0  0
    2.2176    0.9364    2.5827 C   0  0  0  0  0  0  0  0  0  0  0  0
    1.6240    1.9611    3.2554 C   0  0  0  0  0  0  0  0  0  0  0  0
    1.9332    1.8916    4.9405 S   0  0  0  0  0  0  0  0  0  0  0  0
    2.8745    0.4677    4.7434 C   0  0  0  0  0  0  0  0  0  0  0  0
    2.9520    0.0811    3.4459 C   0  0  0  0  0  0  0  0  0  0  0  0
    3.1545    0.8597    0.3995 O   0  0  0  0  0  0  0  0  0  0  0  0
   -0.2408    0.1787    1.3773 C   0  0  0  0  0  0  0  0  0  0  0  0
    0.0057   -0.9704    2.3797 C   0  0  0  0  0  0  0  0  0  0  0  0
   -0.1838   -0.5925    3.6374 O   0  0  0  0  0  0  0  0  0  0  0  0
    0.3448   -2.0741    2.0530 O   0  0  0  0  0  0  0  0  0  0  0  0
   -1.2214   -0.2075    0.3904 N   0  0  0  0  0  0  0  0  0  0  0  0
   -2.3779   -0.8906    0.6593 C   0  0  0  0  0  0  0  0  0  0  0  0
   -2.7956   -0.8866    2.0824 C   0  0  0  0  0  0  0  0  0  0  0  0
   -3.0471   -2.0423    2.7611 C   0  0  0  0  0  0  0  0  0  0  0  0
   -3.5156   -1.7506    4.3833 S   0  0  0  0  0  0  0  0  0  0  0  0
   -3.4135   -0.0505    4.1414 C   0  0  0  0  0  0  0  0  0  0  0  0
   -3.0181    0.2653    2.8852 C   0  0  0  0  0  0  0  0  0  0  0  0
   -2.9927   -1.4500   -0.2214 O   0  0  0  0  0  0  0  0  0  0  0  0
   -3.3746    2.8267   -3.0845 H   0  0  0  0  0  0  0  0  0  0  0  0
   -3.5163    1.4546   -5.1107 H   0  0  0  0  0  0  0  0  0  0  0  0
   -2.3496   -0.7318   -5.1924 H   0  0  0  0  0  0  0  0  0  0  0  0
   -1.0807   -1.5066   -3.2476 H   0  0  0  0  0  0  0  0  0  0  0  0
   -0.5507   -1.4454   -1.1348 H   0  0  0  0  0  0  0  0  0  0  0  0
    0.7873    1.2470   -1.2900 H   0  0  0  0  0  0  0  0  0  0  0  0
    4.0078   -0.9181   -4.0030 H   0  0  0  0  0  0  0  0  0  0  0  0
    4.5109   -3.0310   -2.8513 H   0  0  0  0  0  0  0  0  0  0  0  0
    3.2772   -3.6295   -0.7901 H   0  0  0  0  0  0  0  0  0  0  0  0
    1.5766   -2.1107    0.1058 H   0  0  0  0  0  0  0  0  0  0  0  0
    1.0440    2.7680    2.8537 H   0  0  0  0  0  0  0  0  0  0  0  0
    3.3240    0.0082    5.6009 H   0  0  0  0  0  0  0  0  0  0  0  0
    3.4987   -0.7759    3.0968 H   0  0  0  0  0  0  0  0  0  0  0  0
   -0.5589    1.0693    1.9379 H   0  0  0  0  0  0  0  0  0  0  0  0
   -0.0201   -1.3229    4.2579 H   0  0  0  0  0  0  0  0  0  0  0  0
   -2.9606   -3.0456    2.3947 H   0  0  0  0  0  0  0  0  0  0  0  0
   -3.6549    0.6120    4.9479 H   0  0  0  0  0  0  0  0  0  0  0  0
   -2.9244    1.2712    2.5230 H   0  0  0  0  0  0  0  0  0  0  0  0
  1  2  1  0  0  0  0
  2  3  1  0  0  0  0
  2  4  1  0  0  0  0
  2  5  1  0  0  0  0
  1  6  4  0  0  0  0
  6  7  4  0  0  0  0
  7  8  4  0  0  0  0
  8  9  4  0  0  0  0
  1 10  4  0  0  0  0
  9 10  4  0  0  0  0
 10 11  1  0  0  0  0
 11 12  1  0  0  0  0
 12 13  1  0  0  0  0
 13 14  4  0  0  0  0
 14 15  1  0  0  0  0
 15 16  1  0  0  0  0
 15 17  1  0  0  0  0
 15 18  1  0  0  0  0
 14 19  4  0  0  0  0
 19 20  4  0  0  0  0
 20 21  4  0  0  0  0
 13 22  4  0  0  0  0
 21 22  4  0  0  0  0
 12 23  1  0  0  0  0
 23 24  1  0  0  0  0
 24 25  1  0  0  0  0
 25 26  2  0  0  0  0
 26 27  1  0  0  0  0
 27 28  1  0  0  0  0
 25 29  4  0  0  0  0
 28 29  2  0  0  0  0
 24 30  2  0  0  0  0
 23 31  1  0  0  0  0
 31 32  1  0  0  0  0
 32 33  1  0  0  0  0
 32 34  2  0  0  0  0
 11 35  1  0  0  0  0
 31 35  1  0  0  0  0
 35 36  1  0  0  0  0
 36 37  1  0  0  0  0
 37 38  2  0  0  0  0
 38 39  1  0  0  0  0
 39 40  1  0  0  0  0
 37 41  4  0  0  0  0
 40 41  2  0  0  0  0
 36 42  2  0  0  0  0
  6 43  1  0  0  0  0
  7 44  1  0  0  0  0
  8 45  1  0  0  0  0
  9 46  1  0  0  0  0
 11 47  1  0  0  0  0
 12 48  1  0  0  0  0
 19 49  1  0  0  0  0
 20 50  1  0  0  0  0
 21 51  1  0  0  0  0
 22 52  1  0  0  0  0
 26 53  1  0  0  0  0
 28 54  1  0  0  0  0
 29 55  1  0  0  0  0
 31 56  1  0  0  0  0
 33 57  1  0  0  0  0
 38 58  1  0  0  0  0
 40 59  1  0  0  0  0
 41 60  1  0  0  0  0
M  END
