
  xtb     03162223153D
 xtb: 6.3.3 (4ae9cef)
 72 78  0     0  0            999 V2000
   -0.4556   -3.9478   -0.9416 C   0  0  0  0  0  0  0  0  0  0  0  0
   -0.3136   -4.7961   -2.0257 C   0  0  0  0  0  0  0  0  0  0  0  0
   -0.0277   -4.2812   -3.2782 C   0  0  0  0  0  0  0  0  0  0  0  0
    0.1131   -2.9136   -3.4445 C   0  0  0  0  0  0  0  0  0  0  0  0
   -0.0283   -2.0651   -2.3617 C   0  0  0  0  0  0  0  0  0  0  0  0
   -0.3122   -2.5778   -1.1015 C   0  0  0  0  0  0  0  0  0  0  0  0
   -0.4587   -1.6464    0.0764 C   0  0  0  0  0  0  0  0  0  0  0  0
    0.8506   -0.8795    0.3814 C   0  0  0  0  0  0  0  0  0  0  0  0
    1.2032   -0.8878    1.8523 C   0  0  0  0  0  0  0  0  0  0  0  0
    1.3581    0.2822    2.5790 C   0  0  0  0  0  0  0  0  0  0  0  0
    1.6913    0.2328    3.9216 C   0  0  0  0  0  0  0  0  0  0  0  0
    1.8782   -0.9857    4.5486 C   0  0  0  0  0  0  0  0  0  0  0  0
    1.7402   -2.1578    3.8241 C   0  0  0  0  0  0  0  0  0  0  0  0
    1.4072   -2.1088    2.4834 C   0  0  0  0  0  0  0  0  0  0  0  0
    0.5948    0.4442   -0.1456 N   0  0  0  0  0  0  0  0  0  0  0  0
    1.4345    1.2701   -0.8337 C   0  0  0  0  0  0  0  0  0  0  0  0
    2.8761    1.0246   -0.7122 C   0  0  0  0  0  0  0  0  0  0  0  0
    3.8965    1.6303   -1.4030 C   0  0  0  0  0  0  0  0  0  0  0  0
    3.8109    2.6280   -2.4978 C   0  0  0  0  0  0  0  0  0  0  0  0
    5.1050    1.0966   -0.8515 C   0  0  0  0  0  0  0  0  0  0  0  0
    6.4640    1.2919   -1.0981 C   0  0  0  0  0  0  0  0  0  0  0  0
    7.3688    0.5914   -0.3332 C   0  0  0  0  0  0  0  0  0  0  0  0
    6.9500   -0.2931    0.6653 C   0  0  0  0  0  0  0  0  0  0  0  0
    5.6125   -0.5052    0.9289 C   0  0  0  0  0  0  0  0  0  0  0  0
    4.7016    0.2005    0.1572 C   0  0  0  0  0  0  0  0  0  0  0  0
    3.3573    0.1548    0.2348 O   0  0  0  0  0  0  0  0  0  0  0  0
    0.9955    2.2018   -1.4892 O   0  0  0  0  0  0  0  0  0  0  0  0
   -0.8265    0.7019   -0.1739 C   0  0  0  0  0  0  0  0  0  0  0  0
   -1.2703    1.4523    1.0997 C   0  0  0  0  0  0  0  0  0  0  0  0
   -0.8983    2.7256    1.0706 O   0  0  0  0  0  0  0  0  0  0  0  0
   -1.8640    0.9452    2.0096 O   0  0  0  0  0  0  0  0  0  0  0  0
   -1.4298   -0.5999   -0.2166 N   0  0  0  0  0  0  0  0  0  0  0  0
   -2.7523   -0.9168   -0.1343 C   0  0  0  0  0  0  0  0  0  0  0  0
   -3.7304    0.1662   -0.2843 C   0  0  0  0  0  0  0  0  0  0  0  0
   -5.0950    0.0911   -0.1693 C   0  0  0  0  0  0  0  0  0  0  0  0
   -5.9386   -1.1008    0.0915 C   0  0  0  0  0  0  0  0  0  0  0  0
   -5.5747    1.4275   -0.3580 C   0  0  0  0  0  0  0  0  0  0  0  0
   -4.4304    2.2169   -0.5767 C   0  0  0  0  0  0  0  0  0  0  0  0
   -4.5029    3.5830   -0.8008 C   0  0  0  0  0  0  0  0  0  0  0  0
   -5.7616    4.1494   -0.8013 C   0  0  0  0  0  0  0  0  0  0  0  0
   -6.9092    3.3818   -0.5867 C   0  0  0  0  0  0  0  0  0  0  0  0
   -6.8347    2.0248   -0.3643 C   0  0  0  0  0  0  0  0  0  0  0  0
   -3.3172    1.4531   -0.5340 O   0  0  0  0  0  0  0  0  0  0  0  0
   -3.0950   -2.0767    0.0297 O   0  0  0  0  0  0  0  0  0  0  0  0
   -0.6950   -4.3482    0.0321 H   0  0  0  0  0  0  0  0  0  0  0  0
   -0.4324   -5.8613   -1.8931 H   0  0  0  0  0  0  0  0  0  0  0  0
    0.0797   -4.9429   -4.1250 H   0  0  0  0  0  0  0  0  0  0  0  0
    0.3306   -2.5061   -4.4209 H   0  0  0  0  0  0  0  0  0  0  0  0
    0.0763   -0.9980   -2.4984 H   0  0  0  0  0  0  0  0  0  0  0  0
   -0.8067   -2.2125    0.9478 H   0  0  0  0  0  0  0  0  0  0  0  0
    1.6725   -1.3427   -0.1752 H   0  0  0  0  0  0  0  0  0  0  0  0
    1.2351    1.2394    2.0946 H   0  0  0  0  0  0  0  0  0  0  0  0
    1.8078    1.1510    4.4781 H   0  0  0  0  0  0  0  0  0  0  0  0
    2.1365   -1.0227    5.5963 H   0  0  0  0  0  0  0  0  0  0  0  0
    1.8941   -3.1128    4.3046 H   0  0  0  0  0  0  0  0  0  0  0  0
    1.3102   -3.0237    1.9162 H   0  0  0  0  0  0  0  0  0  0  0  0
    2.7751    2.8929   -2.6823 H   0  0  0  0  0  0  0  0  0  0  0  0
    4.3680    3.5233   -2.2250 H   0  0  0  0  0  0  0  0  0  0  0  0
    4.2532    2.2222   -3.4074 H   0  0  0  0  0  0  0  0  0  0  0  0
    6.7894    1.9753   -1.8671 H   0  0  0  0  0  0  0  0  0  0  0  0
    8.4271    0.7241   -0.5018 H   0  0  0  0  0  0  0  0  0  0  0  0
    7.6931   -0.8212    1.2433 H   0  0  0  0  0  0  0  0  0  0  0  0
    5.2769   -1.1822    1.6980 H   0  0  0  0  0  0  0  0  0  0  0  0
   -1.0517    1.3326   -1.0459 H   0  0  0  0  0  0  0  0  0  0  0  0
   -1.1847    3.1904    1.8742 H   0  0  0  0  0  0  0  0  0  0  0  0
   -6.5711   -1.3027   -0.7725 H   0  0  0  0  0  0  0  0  0  0  0  0
   -5.3110   -1.9646    0.2835 H   0  0  0  0  0  0  0  0  0  0  0  0
   -6.5860   -0.9169    0.9475 H   0  0  0  0  0  0  0  0  0  0  0  0
   -3.6110    4.1656   -0.9675 H   0  0  0  0  0  0  0  0  0  0  0  0
   -5.8636    5.2105   -0.9720 H   0  0  0  0  0  0  0  0  0  0  0  0
   -7.8726    3.8695   -0.5973 H   0  0  0  0  0  0  0  0  0  0  0  0
   -7.7225    1.4341   -0.1998 H   0  0  0  0  0  0  0  0  0  0  0  0
  1  2  4  0  0  0  0
  2  3  4  0  0  0  0
  3  4  4  0  0  0  0
  4  5  4  0  0  0  0
  1  6  4  0  0  0  0
  5  6  4  0  0  0  0
  6  7  1  0  0  0  0
  7  8  1  0  0  0  0
  8  9  1  0  0  0  0
  9 10  4  0  0  0  0
 10 11  4  0  0  0  0
 11 12  4  0  0  0  0
 12 13  4  0  0  0  0
  9 14  4  0  0  0  0
 13 14  4  0  0  0  0
  8 15  1  0  0  0  0
 15 16  1  0  0  0  0
 16 17  1  0  0  0  0
 17 18  2  0  0  0  0
 18 19  1  0  0  0  0
 18 20  1  0  0  0  0
 20 21  4  0  0  0  0
 21 22  2  0  0  0  0
 22 23  4  0  0  0  0
 23 24  4  0  0  0  0
 20 25  4  0  0  0  0
 24 25  4  0  0  0  0
 17 26  1  0  0  0  0
 25 26  1  0  0  0  0
 16 27  2  0  0  0  0
 15 28  1  0  0  0  0
 28 29  1  0  0  0  0
 29 30  1  0  0  0  0
 29 31  2  0  0  0  0
  7 32  1  0  0  0  0
 28 32  1  0  0  0  0
 32 33  1  0  0  0  0
 33 34  1  0  0  0  0
 34 35  2  0  0  0  0
 35 36  1  0  0  0  0
 35 37  1  0  0  0  0
 37 38  4  0  0  0  0
 38 39  4  0  0  0  0
 39 40  4  0  0  0  0
 40 41  4  0  0  0  0
 37 42  4  0  0  0  0
 41 42  2  0  0  0  0
 34 43  1  0  0  0  0
 38 43  1  0  0  0  0
 33 44  2  0  0  0  0
  1 45  1  0  0  0  0
  2 46  1  0  0  0  0
  3 47  1  0  0  0  0
  4 48  1  0  0  0  0
  5 49  1  0  0  0  0
  7 50  1  0  0  0  0
  8 51  1  0  0  0  0
 10 52  1  0  0  0  0
 11 53  1  0  0  0  0
 12 54  1  0  0  0  0
 13 55  1  0  0  0  0
 14 56  1  0  0  0  0
 19 57  1  0  0  0  0
 19 58  1  0  0  0  0
 19 59  1  0  0  0  0
 21 60  1  0  0  0  0
 22 61  1  0  0  0  0
 23 62  1  0  0  0  0
 24 63  1  0  0  0  0
 28 64  1  0  0  0  0
 30 65  1  0  0  0  0
 36 66  1  0  0  0  0
 36 67  1  0  0  0  0
 36 68  1  0  0  0  0
 39 69  1  0  0  0  0
 40 70  1  0  0  0  0
 41 71  1  0  0  0  0
 42 72  1  0  0  0  0
M  END
