84

C      4.503873    4.641399   -2.306607
C      5.436826    4.377518   -1.310681
C      5.058934    3.630729   -0.206251
C      3.751327    3.144186   -0.105907
C      2.773414    3.373798   -1.103411
C      3.188210    4.158099   -2.216230
C      2.290709    4.458661   -3.244555
C      0.979955    4.004991   -3.196420
C      0.556350    3.229357   -2.121192
C      1.423930    2.882802   -1.061467
C      0.923478    1.965359    0.072552
C     -0.597108    2.093503    0.423852
C     -0.836521    2.421275    1.903835
C     -1.100965    3.784499    2.172686
C     -1.349537    4.242273    3.460511
C     -1.330834    3.346121    4.520118
C     -1.050537    1.988093    4.308153
C     -0.788541    1.500179    2.998782
C     -0.494901    0.118298    2.896493
C     -0.482585   -0.738644    4.002094
C     -0.751479   -0.236797    5.262206
C     -1.032729    1.119769    5.412074
N     -1.212343    0.855725   -0.070390
C     -2.584806    0.677018   -0.073629
C     -3.124263   -0.635996   -0.496619
C     -3.967754   -0.686906   -1.612267
C     -4.446061   -1.917452   -2.085833
C     -5.322899   -1.961275   -3.316554
F     -5.570910   -3.224941   -3.757966
F     -4.760796   -1.303713   -4.368716
F     -6.538374   -1.386301   -3.118118
C     -4.085786   -3.090974   -1.400958
C     -3.265995   -3.046427   -0.256201
C     -2.885953   -4.308961    0.485142
F     -1.564002   -4.325317    0.811151
F     -3.565452   -4.456343    1.650513
F     -3.104813   -5.441106   -0.233525
C     -2.803657   -1.802982    0.203387
O     -3.391001    1.551866    0.224605
C     -0.225264    0.018560   -0.752399
C     -0.286133    0.023997   -2.313341
O     -1.364373    0.644517   -2.838813
O      0.517749   -0.497694   -3.073712
N      1.062274    0.542867   -0.307845
C      2.098874   -0.223566    0.203235
C      2.067107   -1.685835    0.001095
C      1.855132   -2.502560    1.116399
C      1.726192   -3.890351    0.961769
C      1.446857   -4.756312    2.170809
F      2.449532   -4.695389    3.085526
F      1.278367   -6.073704    1.876270
F      0.317420   -4.365919    2.823337
C      1.840791   -4.437362   -0.326363
C      2.108639   -3.624936   -1.445246
C      2.187474   -4.227497   -2.828125
F      2.979826   -3.527460   -3.684952
F      2.673348   -5.498905   -2.822546
F      0.959988   -4.300846   -3.411098
C      2.232919   -2.241857   -1.264658
O      3.004123    0.219854    0.901970
H      4.809846    5.240857   -3.163852
H      6.450756    4.753826   -1.393892
H      5.777035    3.415173    0.579786
H      3.519641    2.569630    0.786986
H      2.604086    5.052296   -4.099953
H      0.286747    4.251349   -3.999521
H     -0.481803    2.906718   -2.142999
H      1.506281    2.171335    0.977962
H     -1.081286    2.896077   -0.142083
H     -1.130327    4.511394    1.360430
H     -1.560243    5.295803    3.634999
H     -1.536290    3.721056    5.521126
H     -0.255661   -0.325244    1.942811
H     -0.252538   -1.794038    3.879540
H     -0.733615   -0.890836    6.130839
H     -1.235856    1.498379    6.410465
H     -4.231006    0.237619   -2.127257
H     -4.451573   -4.057061   -1.761934
H     -2.199173   -1.749563    1.109010
H     -0.364164   -1.018156   -0.440338
H     -1.218275    0.575870   -3.806878
H      1.783436   -2.054238    2.107097
H      1.729102   -5.512332   -0.464781
H      2.457636   -1.596899   -2.113534
