66

C      1.406056   -3.688028   -0.019343
C      1.297651   -3.952290   -1.508926
F      0.062907   -3.659509   -2.004551
F      1.518008   -5.254275   -1.846999
F      2.175729   -3.224669   -2.248590
C      1.942454   -4.700489    0.801831
C      2.084693   -4.517062    2.176197
C      1.704459   -3.313956    2.756213
C      1.174206   -2.296480    1.964769
C      1.009763   -2.460820    0.572009
C      0.397620   -1.329400   -0.252115
C     -1.090232   -1.072068    0.130490
C     -2.102647   -2.026799   -0.494433
C     -2.710422   -1.891702   -1.764304
C     -2.431604   -0.747290   -2.707660
F     -2.913465   -0.943519   -3.969136
F     -2.970118    0.430110   -2.294492
F     -1.096784   -0.532185   -2.870511
C     -3.630254   -2.874748   -2.194566
C     -3.939408   -3.980740   -1.407086
C     -3.337344   -4.126621   -0.168198
C     -2.434248   -3.164027    0.280696
N     -1.288817    0.367031   -0.063152
C     -2.346689    0.975079    0.612472
C     -2.365556    2.429838    0.691567
C     -2.700899    3.257815   -0.360407
S     -2.650335    4.913356    0.064597
C     -2.245633    4.551353    1.685504
C     -2.069728    5.651380    2.677478
C     -2.132943    3.190379    1.885729
O     -3.201769    0.320376    1.202230
C      0.004371    1.027128   -0.292448
C      0.093963    1.584470   -1.754476
O      1.173934    1.165637   -2.451912
O     -0.699888    2.330641   -2.306064
N      0.997559   -0.015581   -0.009721
C      2.366620    0.190466   -0.094888
C      2.880948    1.507806    0.286610
C      2.475613    2.231426    1.392089
S      3.287070    3.728093    1.541743
C      4.263090    3.405250    0.178667
C      5.299877    4.388301   -0.244334
C      3.953188    2.186256   -0.385756
O      3.138329   -0.691954   -0.458484
H      2.261945   -5.647847    0.366831
H      2.502515   -5.310141    2.790844
H      1.827273   -3.164323    3.826318
H      0.895123   -1.361605    2.448402
H      0.508179   -1.508512   -1.325572
H     -1.189648   -1.190752    1.220546
H     -4.112604   -2.782948   -3.168911
H     -4.647286   -4.724790   -1.762677
H     -3.572668   -4.986151    0.454421
H     -1.988977   -3.308221    1.265711
H     -2.975666    2.970485   -1.367458
H     -2.311095    5.302233    3.687549
H     -2.723921    6.502008    2.457064
H     -1.031704    6.002054    2.676272
H     -1.905460    2.747651    2.848793
H      0.143535    1.869281    0.384181
H      1.052480    1.556679   -3.344030
H      1.739632    1.957360    2.135418
H      5.829967    4.036866   -1.135123
H      4.845498    5.355473   -0.484314
H      6.040017    4.536585    0.549452
H      4.463543    1.780637   -1.252053
