
  xtb     03162223283D
 xtb: 6.3.3 (4ae9cef)
 66 70  0     0  0            999 V2000
    1.3681   -3.6698    0.0405 C   0  0  0  0  0  0  0  0  0  0  0  0
    1.2248   -3.8932   -1.4404 C   0  0  0  0  0  0  0  0  0  0  0  0
   -0.0542   -3.7580   -1.8638 F   0  0  0  0  0  0  0  0  0  0  0  0
    1.5943   -5.1245   -1.8181 F   0  0  0  0  0  0  0  0  0  0  0  0
    1.9481   -3.0445   -2.1858 F   0  0  0  0  0  0  0  0  0  0  0  0
    1.9020   -4.6929    0.8162 C   0  0  0  0  0  0  0  0  0  0  0  0
    2.0563   -4.5272    2.1789 C   0  0  0  0  0  0  0  0  0  0  0  0
    1.6754   -3.3361    2.7732 C   0  0  0  0  0  0  0  0  0  0  0  0
    1.1404   -2.3221    2.0038 C   0  0  0  0  0  0  0  0  0  0  0  0
    0.9849   -2.4641    0.6286 C   0  0  0  0  0  0  0  0  0  0  0  0
    0.3780   -1.3324   -0.1532 C   0  0  0  0  0  0  0  0  0  0  0  0
   -1.1083   -1.1168    0.2074 C   0  0  0  0  0  0  0  0  0  0  0  0
   -2.0711   -2.0236   -0.5168 C   0  0  0  0  0  0  0  0  0  0  0  0
   -2.6294   -1.8240   -1.7811 C   0  0  0  0  0  0  0  0  0  0  0  0
   -2.3293   -0.6278   -2.6414 C   0  0  0  0  0  0  0  0  0  0  0  0
   -2.6870   -0.8148   -3.9223 F   0  0  0  0  0  0  0  0  0  0  0  0
   -2.9570    0.4955   -2.2585 F   0  0  0  0  0  0  0  0  0  0  0  0
   -1.0162   -0.3287   -2.6920 F   0  0  0  0  0  0  0  0  0  0  0  0
   -3.5178   -2.7562   -2.3102 C   0  0  0  0  0  0  0  0  0  0  0  0
   -3.8386   -3.9049   -1.6164 C   0  0  0  0  0  0  0  0  0  0  0  0
   -3.2690   -4.1291   -0.3763 C   0  0  0  0  0  0  0  0  0  0  0  0
   -2.4076   -3.1942    0.1601 C   0  0  0  0  0  0  0  0  0  0  0  0
   -1.2894    0.3194    0.0414 N   0  0  0  0  0  0  0  0  0  0  0  0
   -2.4711    0.8828    0.4455 C   0  0  0  0  0  0  0  0  0  0  0  0
   -2.4458    2.3638    0.5417 C   0  0  0  0  0  0  0  0  0  0  0  0
   -3.0262    3.2046   -0.3512 C   0  0  0  0  0  0  0  0  0  0  0  0
   -2.7769    4.8501    0.0635 S   0  0  0  0  0  0  0  0  0  0  0  0
   -1.8960    4.4107    1.4913 C   0  0  0  0  0  0  0  0  0  0  0  0
   -1.3380    5.4474    2.3994 C   0  0  0  0  0  0  0  0  0  0  0  0
   -1.8051    3.0598    1.6046 C   0  0  0  0  0  0  0  0  0  0  0  0
   -3.4300    0.1896    0.7018 O   0  0  0  0  0  0  0  0  0  0  0  0
   -0.0109    0.9934   -0.0589 C   0  0  0  0  0  0  0  0  0  0  0  0
    0.1899    1.6476   -1.4490 C   0  0  0  0  0  0  0  0  0  0  0  0
    1.2239    1.1315   -2.0974 O   0  0  0  0  0  0  0  0  0  0  0  0
   -0.4861    2.5467   -1.8574 O   0  0  0  0  0  0  0  0  0  0  0  0
    0.9516   -0.0425    0.2172 N   0  0  0  0  0  0  0  0  0  0  0  0
    2.3010    0.1395    0.3249 C   0  0  0  0  0  0  0  0  0  0  0  0
    2.7177    1.5469    0.5672 C   0  0  0  0  0  0  0  0  0  0  0  0
    2.3140    2.3299    1.6050 C   0  0  0  0  0  0  0  0  0  0  0  0
    3.0419    3.8859    1.5620 S   0  0  0  0  0  0  0  0  0  0  0  0
    3.9160    3.4846    0.1163 C   0  0  0  0  0  0  0  0  0  0  0  0
    4.8126    4.4796   -0.5269 C   0  0  0  0  0  0  0  0  0  0  0  0
    3.6467    2.2129   -0.2753 C   0  0  0  0  0  0  0  0  0  0  0  0
    3.0854   -0.7804    0.2680 O   0  0  0  0  0  0  0  0  0  0  0  0
    2.2008   -5.6170    0.3468 H   0  0  0  0  0  0  0  0  0  0  0  0
    2.4777   -5.3235    2.7720 H   0  0  0  0  0  0  0  0  0  0  0  0
    1.7981   -3.1963    3.8364 H   0  0  0  0  0  0  0  0  0  0  0  0
    0.8566   -1.3895    2.4684 H   0  0  0  0  0  0  0  0  0  0  0  0
    0.4929   -1.4784   -1.2312 H   0  0  0  0  0  0  0  0  0  0  0  0
   -1.2390   -1.3379    1.2788 H   0  0  0  0  0  0  0  0  0  0  0  0
   -3.9539   -2.5787   -3.2807 H   0  0  0  0  0  0  0  0  0  0  0  0
   -4.5256   -4.6175   -2.0445 H   0  0  0  0  0  0  0  0  0  0  0  0
   -3.5014   -5.0253    0.1780 H   0  0  0  0  0  0  0  0  0  0  0  0
   -1.9782   -3.3711    1.1355 H   0  0  0  0  0  0  0  0  0  0  0  0
   -3.5552    2.9471   -1.2450 H   0  0  0  0  0  0  0  0  0  0  0  0
   -0.9217    4.9810    3.2893 H   0  0  0  0  0  0  0  0  0  0  0  0
   -2.1110    6.1529    2.6988 H   0  0  0  0  0  0  0  0  0  0  0  0
   -0.5490    6.0089    1.8991 H   0  0  0  0  0  0  0  0  0  0  0  0
   -1.3308    2.5677    2.4374 H   0  0  0  0  0  0  0  0  0  0  0  0
    0.0520    1.8139    0.6686 H   0  0  0  0  0  0  0  0  0  0  0  0
    1.3102    1.5192   -2.9835 H   0  0  0  0  0  0  0  0  0  0  0  0
    1.6610    2.0816    2.4185 H   0  0  0  0  0  0  0  0  0  0  0  0
    5.3400    4.0190   -1.3584 H   0  0  0  0  0  0  0  0  0  0  0  0
    4.2398    5.3283   -0.9008 H   0  0  0  0  0  0  0  0  0  0  0  0
    5.5421    4.8589    0.1874 H   0  0  0  0  0  0  0  0  0  0  0  0
    4.0827    1.7424   -1.1373 H   0  0  0  0  0  0  0  0  0  0  0  0
  1  2  1  0  0  0  0
  2  3  1  0  0  0  0
  2  4  1  0  0  0  0
  2  5  1  0  0  0  0
  1  6  4  0  0  0  0
  6  7  4  0  0  0  0
  7  8  4  0  0  0  0
  8  9  4  0  0  0  0
  1 10  4  0  0  0  0
  9 10  4  0  0  0  0
 10 11  1  0  0  0  0
 11 12  1  0  0  0  0
 12 13  1  0  0  0  0
 13 14  4  0  0  0  0
 14 15  1  0  0  0  0
 15 16  1  0  0  0  0
 15 17  1  0  0  0  0
 15 18  1  0  0  0  0
 14 19  4  0  0  0  0
 19 20  4  0  0  0  0
 20 21  4  0  0  0  0
 13 22  4  0  0  0  0
 21 22  4  0  0  0  0
 12 23  1  0  0  0  0
 23 24  1  0  0  0  0
 24 25  1  0  0  0  0
 25 26  2  0  0  0  0
 26 27  1  0  0  0  0
 27 28  1  0  0  0  0
 28 29  1  0  0  0  0
 25 30  4  0  0  0  0
 28 30  2  0  0  0  0
 24 31  2  0  0  0  0
 23 32  1  0  0  0  0
 32 33  1  0  0  0  0
 33 34  1  0  0  0  0
 33 35  2  0  0  0  0
 11 36  1  0  0  0  0
 32 36  1  0  0  0  0
 36 37  1  0  0  0  0
 37 38  1  0  0  0  0
 38 39  2  0  0  0  0
 39 40  1  0  0  0  0
 40 41  1  0  0  0  0
 41 42  1  0  0  0  0
 38 43  4  0  0  0  0
 41 43  2  0  0  0  0
 37 44  2  0  0  0  0
  6 45  1  0  0  0  0
  7 46  1  0  0  0  0
  8 47  1  0  0  0  0
  9 48  1  0  0  0  0
 11 49  1  0  0  0  0
 12 50  1  0  0  0  0
 19 51  1  0  0  0  0
 20 52  1  0  0  0  0
 21 53  1  0  0  0  0
 22 54  1  0  0  0  0
 26 55  1  0  0  0  0
 29 56  1  0  0  0  0
 29 57  1  0  0  0  0
 29 58  1  0  0  0  0
 30 59  1  0  0  0  0
 32 60  1  0  0  0  0
 34 61  1  0  0  0  0
 39 62  1  0  0  0  0
 42 63  1  0  0  0  0
 42 64  1  0  0  0  0
 42 65  1  0  0  0  0
 43 66  1  0  0  0  0
M  END
