72

C     -0.299075   -1.865957   -2.512515
C      0.076530   -2.778056   -3.503549
C      1.204859   -3.589058   -3.335718
C      1.602807   -4.495770   -4.330611
C      2.743649   -5.284389   -4.164324
C      3.491713   -5.185712   -2.994420
C      3.101603   -4.296830   -1.990287
C      1.961569   -3.487638   -2.147224
C      1.565953   -2.575214   -1.153185
C      0.432235   -1.760807   -1.320177
C      0.064253   -0.761061   -0.226198
C      0.487339    0.670597   -0.661995
C      1.299951    1.425157    0.380033
C      0.947327    1.464165    1.736178
C      1.729862    2.144039    2.686728
C      1.378916    2.162070    4.046258
C      2.167516    2.837628    4.980001
C      3.313310    3.509205    4.565484
C      3.673741    3.503766    3.217174
C      2.891790    2.824717    2.267700
C      3.234481    2.811876    0.909113
C      2.450577    2.121942   -0.018753
N     -0.770995    1.339747   -0.981560
C     -0.806492    2.417963   -1.849214
C     -2.105495    3.009350   -2.112324
C     -2.644094    4.158708   -1.552182
C     -1.957671    5.025203   -0.542541
C     -3.955695    4.408203   -2.076708
C     -4.333609    3.493249   -3.034770
S     -3.109877    2.342489   -3.326725
O      0.221789    2.862690   -2.358067
C     -1.918601    0.602959   -0.476186
C     -2.640625    1.347083    0.695038
O     -3.888563    0.881825    0.955718
O     -2.144767    2.222895    1.392114
N     -1.386127   -0.664224   -0.005613
C     -2.247726   -1.678078    0.370166
C     -1.680203   -2.813000    1.064857
C     -1.264572   -2.880686    2.387656
C     -1.367557   -1.764335    3.378221
C     -0.755517   -4.185700    2.691369
C     -0.809361   -5.041662    1.612359
S     -1.533197   -4.309316    0.249892
O     -3.460787   -1.530609    0.198348
H     -1.163923   -1.236599   -2.699534
H     -0.513336   -2.844342   -4.415063
H      1.029614   -4.589002   -5.251208
H      3.044193   -5.977508   -4.945581
H      4.387759   -5.793880   -2.872080
H      3.703713   -4.231968   -1.086258
H      2.150556   -2.504154   -0.236626
H      0.530544   -1.078775    0.712505
H      1.089723    0.627124   -1.580514
H      0.036798    0.977393    2.070460
H      0.478137    1.653334    4.387199
H      1.883298    2.840401    6.028838
H      3.924759    4.039546    5.291230
H      4.570140    4.036899    2.907537
H      4.118418    3.344793    0.558599
H      2.742105    2.143347   -1.068673
H     -1.363234    5.789836   -1.055481
H     -1.286055    4.439437    0.092123
H     -2.686097    5.530822    0.102613
H     -4.585664    5.237020   -1.776813
H     -5.261826    3.467787   -3.593077
H     -2.636256    0.425933   -1.280553
H     -4.108218    0.047988    0.472884
H     -0.751231   -0.918499    3.061107
H     -1.018838   -2.074684    4.364942
H     -2.406202   -1.424157    3.465190
H     -0.381728   -4.491563    3.664504
H     -0.488315   -6.075948    1.572164
