60

C      1.974144   -2.366880    0.536027
C      1.678290   -3.023704   -0.802188
F      2.636813   -3.917307   -1.183982
F      1.563980   -2.163895   -1.849593
F      0.514971   -3.726252   -0.771658
C      2.778240   -3.112082    1.429706
C      3.070995   -2.650299    2.709653
C      2.549386   -1.439898    3.135250
C      1.746997   -0.688715    2.276930
C      1.454165   -1.114969    0.963860
C      0.577197   -0.226710    0.084735
C     -0.921513   -0.229148    0.518131
C     -1.723020   -1.305428   -0.208790
C     -2.153630   -1.251460   -1.558398
C     -1.937721   -0.074853   -2.486769
F     -1.972704   -0.421573   -3.805856
F     -0.737002    0.547918   -2.327652
F     -2.879383    0.893981   -2.342177
C     -2.882847   -2.343671   -2.082356
C     -3.170811   -3.468721   -1.313346
C     -2.745241   -3.525833    0.004166
C     -2.032308   -2.458896    0.548866
N     -1.364691    1.147834    0.327757
C     -2.672944    1.535341    0.600434
C     -3.069510    2.910530    0.288900
C     -3.875910    3.691520    1.096018
Br    -4.580690    3.184818    2.811359
S     -4.186625    5.240176    0.464323
C     -3.277623    4.908765   -0.940400
C     -2.751461    3.635496   -0.917781
O     -3.484398    0.727463    1.043849
C     -0.214354    2.047090    0.376146
C     -0.056248    2.745580    1.771797
O      1.177502    2.677686    2.317337
O     -0.928433    3.349495    2.379635
N      0.938089    1.201601    0.086389
C      2.065481    1.807712   -0.435073
C      3.153704    0.948436   -0.867313
C      4.318172    0.754894   -0.156247
Br     4.722683    1.558596    1.537627
S      5.404539   -0.308854   -0.913373
C      4.370705   -0.486572   -2.263451
C      3.212248    0.246468   -2.119329
O      2.146414    3.027705   -0.551038
H      3.184126   -4.077622    1.124617
H      3.698016   -3.239566    3.374872
H      2.767649   -1.073669    4.135890
H      1.357106    0.252493    2.653788
H      0.667130   -0.528265   -0.955505
H     -1.004139   -0.393735    1.602198
H     -3.241332   -2.318336   -3.111975
H     -3.733319   -4.294249   -1.741918
H     -2.969376   -4.398169    0.613025
H     -1.721529   -2.535549    1.591182
H     -3.184405    5.651920   -1.720970
H     -2.173922    3.233738   -1.741985
H     -0.297143    2.830209   -0.381464
H      1.121892    3.246261    3.115290
H      4.660789   -1.112414   -3.096870
H      2.432810    0.273566   -2.872304
