
  xtb     03172202183D
 xtb: 6.3.3 (4ae9cef)
 60 64  0     0  0            999 V2000
    1.9934   -2.3303    0.2494 C   0  0  0  0  0  0  0  0  0  0  0  0
    1.6677   -2.9654   -1.0764 C   0  0  0  0  0  0  0  0  0  0  0  0
    2.2341   -4.1671   -1.2282 F   0  0  0  0  0  0  0  0  0  0  0  0
    2.0681   -2.2384   -2.1382 F   0  0  0  0  0  0  0  0  0  0  0  0
    0.3439   -3.1555   -1.2469 F   0  0  0  0  0  0  0  0  0  0  0  0
    2.8244   -3.0274    1.1213 C   0  0  0  0  0  0  0  0  0  0  0  0
    3.1164   -2.5148    2.3710 C   0  0  0  0  0  0  0  0  0  0  0  0
    2.5601   -1.3102    2.7665 C   0  0  0  0  0  0  0  0  0  0  0  0
    1.7406   -0.6123    1.8996 C   0  0  0  0  0  0  0  0  0  0  0  0
    1.4610   -1.0937    0.6236 C   0  0  0  0  0  0  0  0  0  0  0  0
    0.5620   -0.2764   -0.2709 C   0  0  0  0  0  0  0  0  0  0  0  0
   -0.8833   -0.2639    0.2881 C   0  0  0  0  0  0  0  0  0  0  0  0
   -1.7735   -1.3476   -0.2656 C   0  0  0  0  0  0  0  0  0  0  0  0
   -2.3749   -1.3444   -1.5268 C   0  0  0  0  0  0  0  0  0  0  0  0
   -2.2671   -0.2087   -2.5079 C   0  0  0  0  0  0  0  0  0  0  0  0
   -2.5422   -0.5927   -3.7639 F   0  0  0  0  0  0  0  0  0  0  0  0
   -1.0504    0.3652   -2.5816 F   0  0  0  0  0  0  0  0  0  0  0  0
   -3.1246    0.7955   -2.2432 F   0  0  0  0  0  0  0  0  0  0  0  0
   -3.1783   -2.4115   -1.9198 C   0  0  0  0  0  0  0  0  0  0  0  0
   -3.3724   -3.4961   -1.0885 C   0  0  0  0  0  0  0  0  0  0  0  0
   -2.7668   -3.5173    0.1546 C   0  0  0  0  0  0  0  0  0  0  0  0
   -1.9840   -2.4528    0.5537 C   0  0  0  0  0  0  0  0  0  0  0  0
   -1.3537    1.0907    0.0435 N   0  0  0  0  0  0  0  0  0  0  0  0
   -2.5929    1.4331    0.5046 C   0  0  0  0  0  0  0  0  0  0  0  0
   -2.9235    2.8779    0.4068 C   0  0  0  0  0  0  0  0  0  0  0  0
   -3.2147    3.6363    1.5052 C   0  0  0  0  0  0  0  0  0  0  0  0
   -3.1103    3.0828    3.2889 Br  0  0  0  0  0  0  0  0  0  0  0  0
   -3.5753    5.2758    1.1115 S   0  0  0  0  0  0  0  0  0  0  0  0
   -3.3743    4.9296   -0.5566 C   0  0  0  0  0  0  0  0  0  0  0  0
   -3.0262    3.6392   -0.7848 C   0  0  0  0  0  0  0  0  0  0  0  0
   -3.3501    0.6014    0.9537 O   0  0  0  0  0  0  0  0  0  0  0  0
   -0.2576    1.9963   -0.2028 C   0  0  0  0  0  0  0  0  0  0  0  0
   -0.0794    3.0376    0.9302 C   0  0  0  0  0  0  0  0  0  0  0  0
    0.2059    2.4316    2.0849 O   0  0  0  0  0  0  0  0  0  0  0  0
   -0.3122    4.2050    0.8161 O   0  0  0  0  0  0  0  0  0  0  0  0
    0.9056    1.1363   -0.2783 N   0  0  0  0  0  0  0  0  0  0  0  0
    2.1081    1.7275   -0.0891 C   0  0  0  0  0  0  0  0  0  0  0  0
    3.3089    0.8836   -0.2850 C   0  0  0  0  0  0  0  0  0  0  0  0
    4.3379    0.8137    0.6127 C   0  0  0  0  0  0  0  0  0  0  0  0
    4.4005    1.6033    2.3032 Br  0  0  0  0  0  0  0  0  0  0  0  0
    5.6268   -0.1988    0.0676 S   0  0  0  0  0  0  0  0  0  0  0  0
    4.7976   -0.4802   -1.4119 C   0  0  0  0  0  0  0  0  0  0  0  0
    3.5974    0.1473   -1.4627 C   0  0  0  0  0  0  0  0  0  0  0  0
    2.1754    2.9091    0.1972 O   0  0  0  0  0  0  0  0  0  0  0  0
    3.2389   -3.9756    0.8170 H   0  0  0  0  0  0  0  0  0  0  0  0
    3.7685   -3.0598    3.0346 H   0  0  0  0  0  0  0  0  0  0  0  0
    2.7692   -0.9069    3.7448 H   0  0  0  0  0  0  0  0  0  0  0  0
    1.3216    0.3337    2.2097 H   0  0  0  0  0  0  0  0  0  0  0  0
    0.5701   -0.6567   -1.2959 H   0  0  0  0  0  0  0  0  0  0  0  0
   -0.8415   -0.4151    1.3776 H   0  0  0  0  0  0  0  0  0  0  0  0
   -3.6512   -2.3888   -2.8893 H   0  0  0  0  0  0  0  0  0  0  0  0
   -3.9962   -4.3145   -1.4111 H   0  0  0  0  0  0  0  0  0  0  0  0
   -2.9097   -4.3563    0.8176 H   0  0  0  0  0  0  0  0  0  0  0  0
   -1.5256   -2.4694    1.5311 H   0  0  0  0  0  0  0  0  0  0  0  0
   -3.5235    5.7094   -1.2759 H   0  0  0  0  0  0  0  0  0  0  0  0
   -2.8727    3.2249   -1.7630 H   0  0  0  0  0  0  0  0  0  0  0  0
   -0.3926    2.5535   -1.1431 H   0  0  0  0  0  0  0  0  0  0  0  0
    0.3017    3.0844    2.7980 H   0  0  0  0  0  0  0  0  0  0  0  0
    5.2535   -1.0914   -2.1644 H   0  0  0  0  0  0  0  0  0  0  0  0
    2.9418    0.1152   -2.3125 H   0  0  0  0  0  0  0  0  0  0  0  0
  1  2  1  0  0  0  0
  2  3  1  0  0  0  0
  2  4  1  0  0  0  0
  2  5  1  0  0  0  0
  1  6  4  0  0  0  0
  6  7  4  0  0  0  0
  7  8  4  0  0  0  0
  8  9  4  0  0  0  0
  1 10  4  0  0  0  0
  9 10  4  0  0  0  0
 10 11  1  0  0  0  0
 11 12  1  0  0  0  0
 12 13  1  0  0  0  0
 13 14  4  0  0  0  0
 14 15  1  0  0  0  0
 15 16  1  0  0  0  0
 15 17  1  0  0  0  0
 15 18  1  0  0  0  0
 14 19  4  0  0  0  0
 19 20  4  0  0  0  0
 20 21  4  0  0  0  0
 13 22  4  0  0  0  0
 21 22  4  0  0  0  0
 12 23  1  0  0  0  0
 23 24  1  0  0  0  0
 24 25  1  0  0  0  0
 25 26  2  0  0  0  0
 26 27  1  0  0  0  0
 26 28  1  0  0  0  0
 28 29  1  0  0  0  0
 25 30  4  0  0  0  0
 29 30  2  0  0  0  0
 24 31  2  0  0  0  0
 23 32  1  0  0  0  0
 32 33  1  0  0  0  0
 33 34  1  0  0  0  0
 33 35  2  0  0  0  0
 11 36  1  0  0  0  0
 32 36  1  0  0  0  0
 36 37  4  0  0  0  0
 37 38  1  0  0  0  0
 38 39  2  0  0  0  0
 39 40  1  0  0  0  0
 39 41  1  0  0  0  0
 41 42  1  0  0  0  0
 38 43  4  0  0  0  0
 42 43  2  0  0  0  0
 37 44  2  0  0  0  0
  6 45  1  0  0  0  0
  7 46  1  0  0  0  0
  8 47  1  0  0  0  0
  9 48  1  0  0  0  0
 11 49  1  0  0  0  0
 12 50  1  0  0  0  0
 19 51  1  0  0  0  0
 20 52  1  0  0  0  0
 21 53  1  0  0  0  0
 22 54  1  0  0  0  0
 29 55  1  0  0  0  0
 30 56  1  0  0  0  0
 32 57  1  0  0  0  0
 34 58  1  0  0  0  0
 42 59  1  0  0  0  0
 43 60  1  0  0  0  0
M  END
