
  xtb     03162221533D
 xtb: 6.3.3 (4ae9cef)
 64 70  0     0  0            999 V2000
    2.8730    1.6914   -0.7324 C   0  0  0  0  0  0  0  0  0  0  0  0
    3.5669    2.0543   -1.8731 C   0  0  0  0  0  0  0  0  0  0  0  0
    3.0292    1.8004   -3.1230 C   0  0  0  0  0  0  0  0  0  0  0  0
    1.7880    1.1954   -3.2293 C   0  0  0  0  0  0  0  0  0  0  0  0
    1.0950    0.8311   -2.0898 C   0  0  0  0  0  0  0  0  0  0  0  0
    1.6382    1.0654   -0.8323 C   0  0  0  0  0  0  0  0  0  0  0  0
    0.8959    0.6338    0.4090 C   0  0  0  0  0  0  0  0  0  0  0  0
   -0.4227    1.4186    0.5951 C   0  0  0  0  0  0  0  0  0  0  0  0
   -0.6995    1.9300    1.9920 C   0  0  0  0  0  0  0  0  0  0  0  0
   -0.2200    1.3076    3.1374 C   0  0  0  0  0  0  0  0  0  0  0  0
   -0.5577    1.7939    4.3896 C   0  0  0  0  0  0  0  0  0  0  0  0
   -1.3793    2.9003    4.5124 C   0  0  0  0  0  0  0  0  0  0  0  0
   -1.8649    3.5224    3.3745 C   0  0  0  0  0  0  0  0  0  0  0  0
   -1.5269    3.0409    2.1231 C   0  0  0  0  0  0  0  0  0  0  0  0
   -1.4502    0.4570    0.1964 N   0  0  0  0  0  0  0  0  0  0  0  0
   -2.5908    0.8397   -0.4250 C   0  0  0  0  0  0  0  0  0  0  0  0
   -3.5058   -0.2783   -0.8270 C   0  0  0  0  0  0  0  0  0  0  0  0
   -3.2319   -1.0483   -1.9542 C   0  0  0  0  0  0  0  0  0  0  0  0
   -4.1149   -2.0341   -2.3498 C   0  0  0  0  0  0  0  0  0  0  0  0
   -5.2711   -2.2427   -1.6089 C   0  0  0  0  0  0  0  0  0  0  0  0
   -6.1975   -3.2738   -2.0178 N   0  0  0  0  0  0  0  0  0  0  0  0
   -7.1708   -3.4598   -1.3209 O   0  0  0  0  0  0  0  0  0  0  0  0
   -5.9421   -3.8872   -3.0302 O   0  0  0  0  0  0  0  0  0  0  0  0
   -5.5598   -1.4737   -0.4886 C   0  0  0  0  0  0  0  0  0  0  0  0
   -4.6753   -0.4855   -0.1036 C   0  0  0  0  0  0  0  0  0  0  0  0
   -2.8557    2.0029   -0.6352 O   0  0  0  0  0  0  0  0  0  0  0  0
   -0.9731   -0.8721    0.4445 C   0  0  0  0  0  0  0  0  0  0  0  0
   -1.3322   -1.3863    1.8541 C   0  0  0  0  0  0  0  0  0  0  0  0
   -2.6422   -1.3201    2.0682 O   0  0  0  0  0  0  0  0  0  0  0  0
   -0.5355   -1.8068    2.6404 O   0  0  0  0  0  0  0  0  0  0  0  0
    0.4587   -0.7553    0.3066 N   0  0  0  0  0  0  0  0  0  0  0  0
    1.1727   -1.8021   -0.1827 C   0  0  0  0  0  0  0  0  0  0  0  0
    2.6422   -1.5502   -0.2967 C   0  0  0  0  0  0  0  0  0  0  0  0
    3.3949   -1.2668    0.8393 C   0  0  0  0  0  0  0  0  0  0  0  0
    4.7455   -1.0072    0.7225 C   0  0  0  0  0  0  0  0  0  0  0  0
    5.3325   -1.0292   -0.5369 C   0  0  0  0  0  0  0  0  0  0  0  0
    6.7317   -0.6995   -0.6695 N   0  0  0  0  0  0  0  0  0  0  0  0
    7.3489   -0.4539    0.3440 O   0  0  0  0  0  0  0  0  0  0  0  0
    7.1996   -0.6786   -1.7869 O   0  0  0  0  0  0  0  0  0  0  0  0
    4.6003   -1.3587   -1.6707 C   0  0  0  0  0  0  0  0  0  0  0  0
    3.2541   -1.6340   -1.5434 C   0  0  0  0  0  0  0  0  0  0  0  0
    0.6451   -2.8477   -0.4956 O   0  0  0  0  0  0  0  0  0  0  0  0
    3.2953    1.8879    0.2423 H   0  0  0  0  0  0  0  0  0  0  0  0
    4.5305    2.5327   -1.7856 H   0  0  0  0  0  0  0  0  0  0  0  0
    3.5742    2.0766   -4.0124 H   0  0  0  0  0  0  0  0  0  0  0  0
    1.3597    1.0058   -4.2019 H   0  0  0  0  0  0  0  0  0  0  0  0
    0.1286    0.3553   -2.1762 H   0  0  0  0  0  0  0  0  0  0  0  0
    1.5451    0.7729    1.2789 H   0  0  0  0  0  0  0  0  0  0  0  0
   -0.4784    2.2620   -0.1024 H   0  0  0  0  0  0  0  0  0  0  0  0
    0.4119    0.4351    3.0741 H   0  0  0  0  0  0  0  0  0  0  0  0
   -0.1768    1.3001    5.2710 H   0  0  0  0  0  0  0  0  0  0  0  0
   -1.6407    3.2751    5.4906 H   0  0  0  0  0  0  0  0  0  0  0  0
   -2.5082    4.3850    3.4606 H   0  0  0  0  0  0  0  0  0  0  0  0
   -1.9158    3.5173    1.2359 H   0  0  0  0  0  0  0  0  0  0  0  0
   -2.3367   -0.8689   -2.5310 H   0  0  0  0  0  0  0  0  0  0  0  0
   -3.9263   -2.6443   -3.2199 H   0  0  0  0  0  0  0  0  0  0  0  0
   -6.4729   -1.6574    0.0566 H   0  0  0  0  0  0  0  0  0  0  0  0
   -4.8836    0.1311    0.7561 H   0  0  0  0  0  0  0  0  0  0  0  0
   -1.3663   -1.6113   -0.2691 H   0  0  0  0  0  0  0  0  0  0  0  0
   -2.8669   -1.6606    2.9505 H   0  0  0  0  0  0  0  0  0  0  0  0
    2.9206   -1.2615    1.8088 H   0  0  0  0  0  0  0  0  0  0  0  0
    5.3539   -0.7775    1.5841 H   0  0  0  0  0  0  0  0  0  0  0  0
    5.0952   -1.3911   -2.6289 H   0  0  0  0  0  0  0  0  0  0  0  0
    2.6651   -1.8975   -2.4076 H   0  0  0  0  0  0  0  0  0  0  0  0
  1  2  4  0  0  0  0
  2  3  4  0  0  0  0
  3  4  4  0  0  0  0
  4  5  4  0  0  0  0
  1  6  4  0  0  0  0
  5  6  4  0  0  0  0
  6  7  1  0  0  0  0
  7  8  1  0  0  0  0
  8  9  1  0  0  0  0
  9 10  4  0  0  0  0
 10 11  4  0  0  0  0
 11 12  4  0  0  0  0
 12 13  4  0  0  0  0
  9 14  4  0  0  0  0
 13 14  4  0  0  0  0
  8 15  1  0  0  0  0
 15 16  4  0  0  0  0
 16 17  1  0  0  0  0
 17 18  4  0  0  0  0
 18 19  4  0  0  0  0
 19 20  4  0  0  0  0
 20 21  1  0  0  0  0
 21 22  4  0  0  0  0
 21 23  4  0  0  0  0
 22 23  1  0  0  0  0
 20 24  4  0  0  0  0
 17 25  4  0  0  0  0
 24 25  4  0  0  0  0
 16 26  2  0  0  0  0
 15 27  1  0  0  0  0
 27 28  1  0  0  0  0
 28 29  1  0  0  0  0
 28 30  2  0  0  0  0
  7 31  1  0  0  0  0
 27 31  1  0  0  0  0
 31 32  4  0  0  0  0
 32 33  1  0  0  0  0
 33 34  4  0  0  0  0
 34 35  4  0  0  0  0
 35 36  4  0  0  0  0
 36 37  1  0  0  0  0
 37 38  4  0  0  0  0
 37 39  4  0  0  0  0
 38 39  1  0  0  0  0
 36 40  4  0  0  0  0
 33 41  4  0  0  0  0
 40 41  4  0  0  0  0
 32 42  2  0  0  0  0
  1 43  1  0  0  0  0
  2 44  1  0  0  0  0
  3 45  1  0  0  0  0
  4 46  1  0  0  0  0
  5 47  1  0  0  0  0
  7 48  1  0  0  0  0
  8 49  1  0  0  0  0
 10 50  1  0  0  0  0
 11 51  1  0  0  0  0
 12 52  1  0  0  0  0
 13 53  1  0  0  0  0
 14 54  1  0  0  0  0
 18 55  1  0  0  0  0
 19 56  1  0  0  0  0
 24 57  1  0  0  0  0
 25 58  1  0  0  0  0
 27 59  1  0  0  0  0
 29 60  1  0  0  0  0
 34 61  1  0  0  0  0
 35 62  1  0  0  0  0
 40 63  1  0  0  0  0
 41 64  1  0  0  0  0
M  END
