
  xtb     03172201093D
 xtb: 6.3.3 (4ae9cef)
 70 76  0     0  0            999 V2000
    2.6688    1.7525   -0.1900 C   0  0  0  0  0  0  0  0  0  0  0  0
    2.9415    2.0089    1.2670 C   0  0  0  0  0  0  0  0  0  0  0  0
    1.9010    2.5947    1.8921 F   0  0  0  0  0  0  0  0  0  0  0  0
    3.1880    0.8820    1.9736 F   0  0  0  0  0  0  0  0  0  0  0  0
    3.9954    2.7994    1.4726 F   0  0  0  0  0  0  0  0  0  0  0  0
    3.4940    2.3578   -1.1310 C   0  0  0  0  0  0  0  0  0  0  0  0
    3.2378    2.2106   -2.4809 C   0  0  0  0  0  0  0  0  0  0  0  0
    2.1405    1.4763   -2.8958 C   0  0  0  0  0  0  0  0  0  0  0  0
    1.3236    0.8653   -1.9637 C   0  0  0  0  0  0  0  0  0  0  0  0
    1.5849    0.9747   -0.6014 C   0  0  0  0  0  0  0  0  0  0  0  0
    0.6522    0.2820    0.3626 C   0  0  0  0  0  0  0  0  0  0  0  0
   -0.7428    0.9551    0.3546 C   0  0  0  0  0  0  0  0  0  0  0  0
   -0.9747    1.8280    1.5626 C   0  0  0  0  0  0  0  0  0  0  0  0
   -1.0410    3.2196    1.4958 C   0  0  0  0  0  0  0  0  0  0  0  0
   -0.8557    3.9452    0.1912 C   0  0  0  0  0  0  0  0  0  0  0  0
    0.3432    3.6704   -0.3789 F   0  0  0  0  0  0  0  0  0  0  0  0
   -1.7720    3.6358   -0.7394 F   0  0  0  0  0  0  0  0  0  0  0  0
   -0.8944    5.2748    0.3221 F   0  0  0  0  0  0  0  0  0  0  0  0
   -1.2570    3.9672    2.6464 C   0  0  0  0  0  0  0  0  0  0  0  0
   -1.4060    3.3397    3.8687 C   0  0  0  0  0  0  0  0  0  0  0  0
   -1.3325    1.9603    3.9466 C   0  0  0  0  0  0  0  0  0  0  0  0
   -1.1165    1.2167    2.8025 C   0  0  0  0  0  0  0  0  0  0  0  0
   -1.6782   -0.1655    0.3478 N   0  0  0  0  0  0  0  0  0  0  0  0
   -3.0169    0.0844    0.3632 C   0  0  0  0  0  0  0  0  0  0  0  0
   -3.8865   -1.1200    0.1764 C   0  0  0  0  0  0  0  0  0  0  0  0
   -3.9675   -2.1072    1.1534 C   0  0  0  0  0  0  0  0  0  0  0  0
   -4.8008   -3.1928    0.9696 C   0  0  0  0  0  0  0  0  0  0  0  0
   -5.5450   -3.2839   -0.1995 C   0  0  0  0  0  0  0  0  0  0  0  0
   -6.3984   -4.4319   -0.4065 N   0  0  0  0  0  0  0  0  0  0  0  0
   -6.9428   -4.5361   -1.4835 O   0  0  0  0  0  0  0  0  0  0  0  0
   -6.5111   -5.2183    0.5073 O   0  0  0  0  0  0  0  0  0  0  0  0
   -5.4896   -2.2934   -1.1717 C   0  0  0  0  0  0  0  0  0  0  0  0
   -4.6646   -1.2037   -0.9744 C   0  0  0  0  0  0  0  0  0  0  0  0
   -3.4625    1.1959    0.5305 O   0  0  0  0  0  0  0  0  0  0  0  0
   -1.0444   -1.4062   -0.0105 C   0  0  0  0  0  0  0  0  0  0  0  0
   -1.4634   -1.9088   -1.4153 C   0  0  0  0  0  0  0  0  0  0  0  0
   -2.1285   -3.0514   -1.3559 O   0  0  0  0  0  0  0  0  0  0  0  0
   -1.2851   -1.2623   -2.4108 O   0  0  0  0  0  0  0  0  0  0  0  0
    0.3706   -1.0907   -0.0342 N   0  0  0  0  0  0  0  0  0  0  0  0
    1.1645   -1.9602   -0.7063 C   0  0  0  0  0  0  0  0  0  0  0  0
    2.6250   -1.6695   -0.7329 C   0  0  0  0  0  0  0  0  0  0  0  0
    3.3536   -1.5687    0.4473 C   0  0  0  0  0  0  0  0  0  0  0  0
    4.7100   -1.3106    0.3989 C   0  0  0  0  0  0  0  0  0  0  0  0
    5.3244   -1.1504   -0.8356 C   0  0  0  0  0  0  0  0  0  0  0  0
    6.7346   -0.8340   -0.8903 N   0  0  0  0  0  0  0  0  0  0  0  0
    7.3480   -0.8268    0.1526 O   0  0  0  0  0  0  0  0  0  0  0  0
    7.2080   -0.5883   -1.9777 O   0  0  0  0  0  0  0  0  0  0  0  0
    4.6143   -1.2927   -2.0218 C   0  0  0  0  0  0  0  0  0  0  0  0
    3.2645   -1.5707   -1.9663 C   0  0  0  0  0  0  0  0  0  0  0  0
    0.6770   -2.9449   -1.2318 O   0  0  0  0  0  0  0  0  0  0  0  0
    4.3304    2.9536   -0.8015 H   0  0  0  0  0  0  0  0  0  0  0  0
    3.8845    2.6841   -3.2022 H   0  0  0  0  0  0  0  0  0  0  0  0
    1.9150    1.3809   -3.9464 H   0  0  0  0  0  0  0  0  0  0  0  0
    0.4724    0.2885   -2.2968 H   0  0  0  0  0  0  0  0  0  0  0  0
    1.0487    0.2825    1.3834 H   0  0  0  0  0  0  0  0  0  0  0  0
   -0.8763    1.5226   -0.5720 H   0  0  0  0  0  0  0  0  0  0  0  0
   -1.3080    5.0426    2.5811 H   0  0  0  0  0  0  0  0  0  0  0  0
   -1.5766    3.9284    4.7561 H   0  0  0  0  0  0  0  0  0  0  0  0
   -1.4430    1.4628    4.8980 H   0  0  0  0  0  0  0  0  0  0  0  0
   -1.0642    0.1395    2.8645 H   0  0  0  0  0  0  0  0  0  0  0  0
   -3.3918   -2.0169    2.0620 H   0  0  0  0  0  0  0  0  0  0  0  0
   -4.8835   -3.9735    1.7100 H   0  0  0  0  0  0  0  0  0  0  0  0
   -6.0948   -2.3893   -2.0603 H   0  0  0  0  0  0  0  0  0  0  0  0
   -4.6118   -0.4151   -1.7090 H   0  0  0  0  0  0  0  0  0  0  0  0
   -1.2540   -2.2091    0.7129 H   0  0  0  0  0  0  0  0  0  0  0  0
   -2.3182   -3.3886   -2.2467 H   0  0  0  0  0  0  0  0  0  0  0  0
    2.8658   -1.6944    1.4006 H   0  0  0  0  0  0  0  0  0  0  0  0
    5.2953   -1.2176    1.3006 H   0  0  0  0  0  0  0  0  0  0  0  0
    5.1313   -1.1886   -2.9632 H   0  0  0  0  0  0  0  0  0  0  0  0
    2.6915   -1.7006   -2.8706 H   0  0  0  0  0  0  0  0  0  0  0  0
  1  2  1  0  0  0  0
  2  3  1  0  0  0  0
  2  4  1  0  0  0  0
  2  5  1  0  0  0  0
  1  6  4  0  0  0  0
  6  7  4  0  0  0  0
  7  8  4  0  0  0  0
  8  9  4  0  0  0  0
  1 10  4  0  0  0  0
  9 10  4  0  0  0  0
 10 11  1  0  0  0  0
 11 12  1  0  0  0  0
 12 13  1  0  0  0  0
 13 14  4  0  0  0  0
 14 15  1  0  0  0  0
 15 16  1  0  0  0  0
 15 17  1  0  0  0  0
 15 18  1  0  0  0  0
 14 19  4  0  0  0  0
 19 20  4  0  0  0  0
 20 21  4  0  0  0  0
 13 22  4  0  0  0  0
 21 22  4  0  0  0  0
 12 23  1  0  0  0  0
 23 24  1  0  0  0  0
 24 25  1  0  0  0  0
 25 26  4  0  0  0  0
 26 27  4  0  0  0  0
 27 28  4  0  0  0  0
 28 29  1  0  0  0  0
 29 30  4  0  0  0  0
 29 31  4  0  0  0  0
 30 31  1  0  0  0  0
 28 32  4  0  0  0  0
 25 33  4  0  0  0  0
 32 33  4  0  0  0  0
 24 34  2  0  0  0  0
 23 35  1  0  0  0  0
 35 36  1  0  0  0  0
 36 37  1  0  0  0  0
 36 38  2  0  0  0  0
 11 39  1  0  0  0  0
 35 39  1  0  0  0  0
 39 40  4  0  0  0  0
 40 41  1  0  0  0  0
 41 42  4  0  0  0  0
 42 43  4  0  0  0  0
 43 44  4  0  0  0  0
 44 45  1  0  0  0  0
 45 46  4  0  0  0  0
 45 47  4  0  0  0  0
 46 47  1  0  0  0  0
 44 48  4  0  0  0  0
 41 49  4  0  0  0  0
 48 49  4  0  0  0  0
 40 50  2  0  0  0  0
  6 51  1  0  0  0  0
  7 52  1  0  0  0  0
  8 53  1  0  0  0  0
  9 54  1  0  0  0  0
 11 55  1  0  0  0  0
 12 56  1  0  0  0  0
 19 57  1  0  0  0  0
 20 58  1  0  0  0  0
 21 59  1  0  0  0  0
 22 60  1  0  0  0  0
 26 61  1  0  0  0  0
 27 62  1  0  0  0  0
 32 63  1  0  0  0  0
 33 64  1  0  0  0  0
 35 65  1  0  0  0  0
 37 66  1  0  0  0  0
 42 67  1  0  0  0  0
 43 68  1  0  0  0  0
 48 69  1  0  0  0  0
 49 70  1  0  0  0  0
M  END
