72

C     -5.481532   -0.842646   -0.854005
C     -5.579618   -1.531919    0.350904
C     -4.445052   -1.724752    1.122690
C     -3.212336   -1.229950    0.686533
C     -3.069608   -0.526683   -0.536646
C     -4.249922   -0.338602   -1.304014
C     -4.198388    0.360634   -2.514873
C     -3.001851    0.888692   -2.980936
C     -1.834445    0.718000   -2.245314
C     -1.832478    0.005433   -1.029626
C     -0.536602   -0.142771   -0.235882
C      0.836023   -0.142911   -0.984620
C      1.107679   -1.445377   -1.737499
C      1.137350   -1.336131   -3.146019
C      1.337555   -2.444955   -3.957867
C      1.518302   -3.694047   -3.381918
C      1.506773   -3.853151   -1.991413
C      1.303430   -2.732765   -1.139231
C      1.317097   -2.997163    0.253100
C      1.513673   -4.279884    0.774508
C      1.704084   -5.351301   -0.081550
C      1.700678   -5.137033   -1.455858
N      1.781710    0.204209    0.081832
C      3.150182    0.139802   -0.097466
C      4.004558    0.133044    1.087780
C      3.822489   -0.667566    2.199880
S      5.009891   -0.416122    3.403421
C      5.838775    0.719749    2.434854
C      7.079749    1.369327    2.943174
C      5.208788    0.904087    1.221672
O      3.645748    0.140583   -1.221578
C      1.066763    0.681068    1.265933
C      1.599030    1.938411    2.031756
O      2.274296    2.823277    1.256517
O      1.321971    2.181294    3.199949
N     -0.341637    0.843764    0.848669
C     -0.631439    2.153578    0.416058
C     -1.888446    2.715287    0.904186
C     -2.670791    2.166143    1.903101
S     -4.096032    3.058807    2.201889
C     -3.685227    4.225664    1.024011
C     -4.596943    5.373536    0.761882
C     -2.484163    3.927090    0.414902
O      0.134488    2.766002   -0.328276
H     -6.384568   -0.695264   -1.442881
H     -6.541281   -1.911092    0.685729
H     -4.513739   -2.256448    2.068020
H     -2.364518   -1.400214    1.342755
H     -5.100790    0.510376   -3.104581
H     -2.982133    1.443709   -3.915594
H     -0.932661    1.178904   -2.638572
H     -0.605140   -1.104378    0.280647
H      0.909897    0.699810   -1.681178
H      1.010417   -0.369362   -3.630969
H      1.356973   -2.334813   -5.038916
H      1.676172   -4.549791   -4.034962
H      1.178946   -2.205110    0.975789
H      1.519932   -4.437616    1.849900
H      1.859429   -6.351151    0.314370
H      1.856351   -5.990056   -2.113382
H      3.056401   -1.407371    2.379543
H      7.772256    0.629753    3.361071
H      6.837135    2.100414    3.721519
H      7.602591    1.895173    2.136865
H      5.578977    1.577284    0.455954
H      1.074114   -0.143365    1.988109
H      2.085116    2.690257    0.299629
H     -2.485195    1.268739    2.476241
H     -4.913056    5.854373    1.693802
H     -4.101617    6.133071    0.148819
H     -5.489016    5.033926    0.222954
H     -2.045563    4.538491   -0.365291
