74

C     -1.327873    0.187753   -2.470483
C     -2.078716    0.390422   -3.631403
C     -3.301514   -0.258157   -3.795532
C     -3.778666   -1.104265   -2.797454
C     -3.034302   -1.305503   -1.635969
C     -1.796242   -0.661070   -1.454236
C     -1.000948   -0.921624   -0.176509
C      0.246507   -1.795405   -0.468628
C      0.525630   -2.877948    0.574138
C      1.115333   -4.083395    0.151199
C      1.386848   -5.108927    1.059294
C      1.087659   -4.941332    2.409103
C      0.519153   -3.748851    2.852107
C      0.235629   -2.727472    1.942482
N      1.336791   -0.821075   -0.526859
C      2.465723   -1.050206   -1.294055
C      3.559066   -0.096784   -1.235994
C      4.833695   -0.340986   -0.759392
C      5.673430    0.808043   -0.836442
C      7.103385    0.902531   -0.398778
C      7.555204    2.362542   -0.246501
C      7.102649    3.220882   -1.440754
C      5.571324    3.255786   -1.572343
C      5.005140    1.877211   -1.405788
S      3.432683    1.472069   -1.902409
O      2.554548   -2.068379   -1.979261
C      1.003505    0.356613    0.270425
C      1.673467    0.340798    1.681319
O      2.790244   -0.415372    1.760438
O      1.315252    0.947289    2.679867
N     -0.444217    0.307634    0.410060
C     -1.143563    1.455977    0.742921
C     -2.563669    1.329179    1.002609
C     -3.602493    1.960097    0.342400
C     -4.879514    1.589977    0.864028
C     -4.749393    0.722773    1.930124
C     -5.892248    0.146544    2.705594
C     -7.178466    0.233292    1.877328
C     -7.366974    1.635909    1.280949
C     -6.215385    2.026971    0.341616
S     -3.125934    0.384152    2.314792
O     -0.572222    2.546905    0.757440
H     -0.372585    0.703506   -2.373573
H     -1.706293    1.050633   -4.410085
H     -3.881670   -0.109680   -4.703022
H     -4.730878   -1.610758   -2.925086
H     -3.435866   -1.965270   -0.870272
H     -1.669343   -1.390287    0.551267
H      0.143545   -2.295195   -1.439980
H      1.367610   -4.235784   -0.900807
H      1.825921   -6.042247    0.706001
H      1.301206   -5.738585    3.115213
H      0.283036   -3.619866    3.903009
H     -0.216857   -1.819809    2.331123
H      5.133193   -1.300950   -0.352047
H      7.252019    0.370949    0.549597
H      7.724220    0.406245   -1.154636
H      7.137101    2.787000    0.672521
H      8.648781    2.399352   -0.147163
H      7.541546    2.812962   -2.360967
H      7.481140    4.244138   -1.325186
H      5.288550    3.698203   -2.536900
H      5.154973    3.899982   -0.781342
H      1.297516    1.275078   -0.236273
H      3.077307   -0.290550    2.693720
H     -3.450295    2.624935   -0.498944
H     -5.693235   -0.893825    2.981852
H     -6.012456    0.710631    3.641574
H     -7.140182   -0.500278    1.062558
H     -8.039752   -0.024094    2.505223
H     -8.313869    1.688908    0.734137
H     -7.435071    2.363539    2.098326
H     -6.227160    3.110337    0.187111
H     -6.372679    1.556183   -0.638392
