
  xtb     03172200473D
 xtb: 6.3.3 (4ae9cef)
 74 80  0     0  0            999 V2000
   -1.3309    0.1999   -1.7973 C   0  0  0  0  0  0  0  0  0  0  0  0
   -2.0976    0.5878   -2.8805 C   0  0  0  0  0  0  0  0  0  0  0  0
   -3.3435    0.0214   -3.0903 C   0  0  0  0  0  0  0  0  0  0  0  0
   -3.8124   -0.9489   -2.2220 C   0  0  0  0  0  0  0  0  0  0  0  0
   -3.0450   -1.3401   -1.1399 C   0  0  0  0  0  0  0  0  0  0  0  0
   -1.8053   -0.7588   -0.9103 C   0  0  0  0  0  0  0  0  0  0  0  0
   -0.9968   -1.1493    0.3044 C   0  0  0  0  0  0  0  0  0  0  0  0
    0.2741   -1.9339   -0.0694 C   0  0  0  0  0  0  0  0  0  0  0  0
    0.6666   -3.0123    0.9179 C   0  0  0  0  0  0  0  0  0  0  0  0
    1.4698   -4.0553    0.4681 C   0  0  0  0  0  0  0  0  0  0  0  0
    1.9065   -5.0334    1.3426 C   0  0  0  0  0  0  0  0  0  0  0  0
    1.5440   -4.9839    2.6783 C   0  0  0  0  0  0  0  0  0  0  0  0
    0.7446   -3.9499    3.1321 C   0  0  0  0  0  0  0  0  0  0  0  0
    0.3079   -2.9667    2.2596 C   0  0  0  0  0  0  0  0  0  0  0  0
    1.2956   -0.8893   -0.1135 N   0  0  0  0  0  0  0  0  0  0  0  0
    2.3858   -1.0204   -0.9159 C   0  0  0  0  0  0  0  0  0  0  0  0
    3.4143    0.0266   -0.9363 C   0  0  0  0  0  0  0  0  0  0  0  0
    4.7019   -0.2272   -1.3252 C   0  0  0  0  0  0  0  0  0  0  0  0
    5.5267    0.9165   -1.3486 C   0  0  0  0  0  0  0  0  0  0  0  0
    6.9756    0.9381   -1.7246 C   0  0  0  0  0  0  0  0  0  0  0  0
    7.6252    2.2475   -1.2778 C   0  0  0  0  0  0  0  0  0  0  0  0
    6.7662    3.4382   -1.6974 C   0  0  0  0  0  0  0  0  0  0  0  0
    5.4337    3.4200   -0.9461 C   0  0  0  0  0  0  0  0  0  0  0  0
    4.8519    2.0513   -1.0065 C   0  0  0  0  0  0  0  0  0  0  0  0
    3.1994    1.7229   -0.6173 S   0  0  0  0  0  0  0  0  0  0  0  0
    2.5116   -2.0057   -1.6250 O   0  0  0  0  0  0  0  0  0  0  0  0
    0.9712    0.0867    0.8864 C   0  0  0  0  0  0  0  0  0  0  0  0
    1.6411   -0.2030    2.2409 C   0  0  0  0  0  0  0  0  0  0  0  0
    2.9215   -0.5364    2.0746 O   0  0  0  0  0  0  0  0  0  0  0  0
    1.1073   -0.1107    3.3071 O   0  0  0  0  0  0  0  0  0  0  0  0
   -0.4690    0.0274    0.9894 N   0  0  0  0  0  0  0  0  0  0  0  0
   -1.1495    1.1983    1.1713 C   0  0  0  0  0  0  0  0  0  0  0  0
   -2.6170    1.1086    1.1270 C   0  0  0  0  0  0  0  0  0  0  0  0
   -3.4347    1.9784    0.4675 C   0  0  0  0  0  0  0  0  0  0  0  0
   -4.8049    1.6510    0.5764 C   0  0  0  0  0  0  0  0  0  0  0  0
   -5.0178    0.5473    1.3467 C   0  0  0  0  0  0  0  0  0  0  0  0
   -6.3494   -0.0348    1.6707 C   0  0  0  0  0  0  0  0  0  0  0  0
   -7.3874    0.4990    0.6816 C   0  0  0  0  0  0  0  0  0  0  0  0
   -7.2635    2.0154    0.5519 C   0  0  0  0  0  0  0  0  0  0  0  0
   -5.9261    2.3877   -0.0867 C   0  0  0  0  0  0  0  0  0  0  0  0
   -3.5339   -0.1140    1.9461 S   0  0  0  0  0  0  0  0  0  0  0  0
   -0.5683    2.2525    1.3409 O   0  0  0  0  0  0  0  0  0  0  0  0
   -0.3646    0.6549   -1.6363 H   0  0  0  0  0  0  0  0  0  0  0  0
   -1.7225    1.3387   -3.5597 H   0  0  0  0  0  0  0  0  0  0  0  0
   -3.9457    0.3344   -3.9303 H   0  0  0  0  0  0  0  0  0  0  0  0
   -4.7808   -1.3991   -2.3834 H   0  0  0  0  0  0  0  0  0  0  0  0
   -3.4151   -2.0928   -0.4588 H   0  0  0  0  0  0  0  0  0  0  0  0
   -1.6229   -1.7430    0.9769 H   0  0  0  0  0  0  0  0  0  0  0  0
    0.1999   -2.3706   -1.0704 H   0  0  0  0  0  0  0  0  0  0  0  0
    1.7641   -4.0828   -0.5698 H   0  0  0  0  0  0  0  0  0  0  0  0
    2.5311   -5.8363    0.9799 H   0  0  0  0  0  0  0  0  0  0  0  0
    1.8835   -5.7474    3.3628 H   0  0  0  0  0  0  0  0  0  0  0  0
    0.4581   -3.9003    4.1722 H   0  0  0  0  0  0  0  0  0  0  0  0
   -0.3060   -2.1675    2.6456 H   0  0  0  0  0  0  0  0  0  0  0  0
    5.0339   -1.2179   -1.5779 H   0  0  0  0  0  0  0  0  0  0  0  0
    7.4863    0.0840   -1.2743 H   0  0  0  0  0  0  0  0  0  0  0  0
    7.0611    0.8345   -2.8110 H   0  0  0  0  0  0  0  0  0  0  0  0
    7.7317    2.2488   -0.1910 H   0  0  0  0  0  0  0  0  0  0  0  0
    8.6218    2.3313   -1.7141 H   0  0  0  0  0  0  0  0  0  0  0  0
    6.5788    3.3843   -2.7715 H   0  0  0  0  0  0  0  0  0  0  0  0
    7.2888    4.3736   -1.4920 H   0  0  0  0  0  0  0  0  0  0  0  0
    4.7392    4.1470   -1.3725 H   0  0  0  0  0  0  0  0  0  0  0  0
    5.5934    3.7003    0.1005 H   0  0  0  0  0  0  0  0  0  0  0  0
    1.2621    1.1130    0.6137 H   0  0  0  0  0  0  0  0  0  0  0  0
    3.3463   -0.7019    2.9321 H   0  0  0  0  0  0  0  0  0  0  0  0
   -3.0568    2.8123   -0.0959 H   0  0  0  0  0  0  0  0  0  0  0  0
   -6.3067   -1.1256    1.6343 H   0  0  0  0  0  0  0  0  0  0  0  0
   -6.6317    0.2454    2.6912 H   0  0  0  0  0  0  0  0  0  0  0  0
   -7.2247    0.0413   -0.2962 H   0  0  0  0  0  0  0  0  0  0  0  0
   -8.3886    0.2288    1.0207 H   0  0  0  0  0  0  0  0  0  0  0  0
   -8.0825    2.4089   -0.0525 H   0  0  0  0  0  0  0  0  0  0  0  0
   -7.3299    2.4660    1.5442 H   0  0  0  0  0  0  0  0  0  0  0  0
   -5.7547    3.4639   -0.0171 H   0  0  0  0  0  0  0  0  0  0  0  0
   -5.9363    2.1251   -1.1498 H   0  0  0  0  0  0  0  0  0  0  0  0
  1  2  4  0  0  0  0
  2  3  4  0  0  0  0
  3  4  4  0  0  0  0
  4  5  4  0  0  0  0
  1  6  4  0  0  0  0
  5  6  4  0  0  0  0
  6  7  1  0  0  0  0
  7  8  1  0  0  0  0
  8  9  1  0  0  0  0
  9 10  4  0  0  0  0
 10 11  4  0  0  0  0
 11 12  4  0  0  0  0
 12 13  4  0  0  0  0
  9 14  4  0  0  0  0
 13 14  4  0  0  0  0
  8 15  1  0  0  0  0
 15 16  1  0  0  0  0
 16 17  1  0  0  0  0
 17 18  2  0  0  0  0
 18 19  4  0  0  0  0
 19 20  1  0  0  0  0
 20 21  1  0  0  0  0
 21 22  1  0  0  0  0
 22 23  1  0  0  0  0
 19 24  2  0  0  0  0
 23 24  1  0  0  0  0
 17 25  1  0  0  0  0
 24 25  1  0  0  0  0
 16 26  2  0  0  0  0
 15 27  1  0  0  0  0
 27 28  1  0  0  0  0
 28 29  1  0  0  0  0
 28 30  2  0  0  0  0
  7 31  1  0  0  0  0
 27 31  1  0  0  0  0
 31 32  1  0  0  0  0
 32 33  1  0  0  0  0
 33 34  2  0  0  0  0
 34 35  4  0  0  0  0
 35 36  2  0  0  0  0
 36 37  1  0  0  0  0
 37 38  1  0  0  0  0
 38 39  1  0  0  0  0
 35 40  1  0  0  0  0
 39 40  1  0  0  0  0
 33 41  1  0  0  0  0
 36 41  1  0  0  0  0
 32 42  2  0  0  0  0
  1 43  1  0  0  0  0
  2 44  1  0  0  0  0
  3 45  1  0  0  0  0
  4 46  1  0  0  0  0
  5 47  1  0  0  0  0
  7 48  1  0  0  0  0
  8 49  1  0  0  0  0
 10 50  1  0  0  0  0
 11 51  1  0  0  0  0
 12 52  1  0  0  0  0
 13 53  1  0  0  0  0
 14 54  1  0  0  0  0
 18 55  1  0  0  0  0
 20 56  1  0  0  0  0
 20 57  1  0  0  0  0
 21 58  1  0  0  0  0
 21 59  1  0  0  0  0
 22 60  1  0  0  0  0
 22 61  1  0  0  0  0
 23 62  1  0  0  0  0
 23 63  1  0  0  0  0
 27 64  1  0  0  0  0
 29 65  1  0  0  0  0
 34 66  1  0  0  0  0
 37 67  1  0  0  0  0
 37 68  1  0  0  0  0
 38 69  1  0  0  0  0
 38 70  1  0  0  0  0
 39 71  1  0  0  0  0
 39 72  1  0  0  0  0
 40 73  1  0  0  0  0
 40 74  1  0  0  0  0
M  END
