86

C     -1.274116   -3.137527   -1.594868
C     -0.636032   -2.560123   -2.837470
F     -0.392416   -3.494168   -3.804073
F     -1.410041   -1.616663   -3.433682
F      0.568096   -1.985515   -2.592533
C     -1.847881   -4.426547   -1.703523
C     -2.457560   -5.053016   -0.619953
C     -2.508932   -4.403772    0.602071
C     -1.958547   -3.129032    0.731709
C     -1.343880   -2.460270   -0.355123
C     -0.807754   -1.066975   -0.054389
C      0.722826   -0.972804    0.251469
C      1.029921   -1.381366    1.691170
C      1.788262   -2.539877    1.995809
C      2.389616   -3.425820    0.922235
F      2.922897   -4.583455    1.408257
F      1.470165   -3.820333   -0.003087
F      3.389076   -2.825654    0.225043
C      2.015293   -2.874224    3.347145
C      1.510008   -2.089591    4.383106
C      0.775850   -0.949101    4.087333
C      0.541831   -0.597541    2.758052
N      0.995508    0.430099   -0.059391
C      2.167988    1.082084    0.287348
C      2.189022    2.561367    0.136795
C      3.076281    3.247049   -0.717533
C      4.066582    2.595175   -1.593409
C      5.130418    1.846571   -1.070557
C      6.080834    1.259640   -1.911230
C      5.989795    1.423424   -3.291595
C      4.950680    2.174749   -3.832401
C      3.999296    2.757202   -2.990182
C      2.986213    4.655872   -0.744219
C      2.065892    5.351926    0.045722
C      1.210693    4.657614    0.893038
C      1.274788    3.268127    0.944071
O      3.118007    0.532260    0.831335
C      0.092451    0.883521   -1.122395
C      0.712842    0.797401   -2.553093
O      1.977185    0.315147   -2.565160
O      0.174172    1.078455   -3.613965
N     -1.067089   -0.003363   -1.029686
C     -2.299438    0.561323   -1.329206
C     -3.534176   -0.109789   -0.876427
C     -4.166812   -0.950184   -1.803669
C     -5.340986   -1.611144   -1.454682
C     -5.893757   -1.416890   -0.192501
C     -5.278616   -0.554668    0.719666
C     -4.087500    0.126880    0.401479
C     -3.491234    1.039289    1.400429
C     -3.195861    0.587917    2.700482
C     -2.635793    1.443706    3.653797
C     -2.363302    2.769282    3.326698
C     -2.659381    3.241146    2.051087
C     -3.222464    2.384864    1.100104
O     -2.425564    1.617022   -1.944341
H     -1.816004   -4.960681   -2.653410
H     -2.886035   -6.045806   -0.733595
H     -2.979476   -4.885587    1.455473
H     -2.022383   -2.648688    1.708456
H     -1.344569   -0.715462    0.834101
H      1.315635   -1.550304   -0.460936
H      2.605778   -3.753845    3.601685
H      1.708960   -2.361234    5.416968
H      0.398428   -0.321328    4.891513
H     -0.015203    0.314450    2.554057
H      5.225555    1.709711    0.005742
H      6.888749    0.674343   -1.481329
H      6.731631    0.967362   -3.942363
H      4.877953    2.309577   -4.908864
H      3.195719    3.341543   -3.433874
H      3.657595    5.230979   -1.382598
H      2.028251    6.438377    0.004662
H      0.501028    5.197038    1.514708
H      0.614679    2.729820    1.622102
H     -0.186903    1.926430   -0.947390
H      2.238166    0.288711   -3.507767
H     -3.747712   -1.080676   -2.799175
H     -5.832539   -2.265219   -2.170098
H     -6.816235   -1.924946    0.078450
H     -5.751893   -0.399076    1.688777
H     -3.394966   -0.444883    2.980745
H     -2.418577    1.073244    4.653179
H     -1.932200    3.437335    4.068426
H     -2.460314    4.278207    1.790425
H     -3.466473    2.790911    0.117833
