74

C      0.472929   -1.681643    2.432870
O      0.678206   -0.373942    2.787250
C      1.585792   -0.203883    3.880030
C      0.234187   -2.665330    3.405451
C      0.006525   -3.991962    3.041412
C     -0.001179   -4.342359    1.698575
C      0.203607   -3.362820    0.724932
C      0.445352   -2.011359    1.068250
C      0.589187   -1.023568   -0.091035
C     -0.745517   -0.285396   -0.337354
C     -1.175563   -0.437945   -1.796670
C     -0.674916    0.404804   -2.805651
C     -1.073736    0.247871   -4.132202
C     -1.961732   -0.766008   -4.476853
C     -2.448607   -1.631968   -3.496878
C     -2.064924   -1.473408   -2.160986
O     -2.466012   -2.305422   -1.151240
C     -3.665680   -3.045632   -1.366376
N     -0.484697    1.101269    0.075046
C     -1.400035    1.912660    0.730725
C     -2.813505    1.634354    0.544912
C     -3.734382    1.551098    1.582152
C     -3.588951    1.681609    3.053657
F     -4.527329    0.966254    3.728617
F     -2.385439    1.236114    3.487349
F     -3.708537    2.969248    3.467097
O     -4.984484    1.287350    1.081209
C     -4.868514    1.231753   -0.276450
C     -6.106888    0.952426   -1.037088
C     -3.564225    1.464924   -0.653324
O     -1.039631    2.846322    1.436435
C      0.936093    1.308706    0.370167
C      1.433614    2.648573   -0.250465
O      0.650973    3.167269   -1.223909
O      2.477381    3.222234    0.023582
N      1.589430    0.049276   -0.018042
C      2.906642   -0.275769    0.262939
C      3.942996    0.584478   -0.280366
C      5.182845    0.759972    0.312472
C      5.766591    0.255506    1.580253
F      6.808857    1.021669    2.013795
F      4.865030    0.246702    2.598810
F      6.254792   -1.012243    1.461428
O      5.975219    1.545483   -0.482251
C      5.249748    1.870534   -1.584049
C      5.921528    2.735686   -2.573450
C      4.007264    1.280557   -1.524943
O      3.239994   -1.315447    0.820115
H      1.953407    0.822716    3.843889
H      1.065347   -0.343048    4.832223
H      2.445542   -0.884847    3.805820
H      0.211508   -2.412695    4.461988
H     -0.166630   -4.742023    3.808130
H     -0.178596   -5.374945    1.400946
H      0.156956   -3.664753   -0.322786
H      0.891985   -1.614299   -0.967385
H     -1.541701   -0.664835    0.312956
H      0.027667    1.198136   -2.568691
H     -0.689693    0.918693   -4.897789
H     -2.266756   -0.891735   -5.513290
H     -3.113753   -2.431729   -3.808461
H     -3.956947   -3.499501   -0.414074
H     -4.484219   -2.395575   -1.693246
H     -3.495179   -3.858705   -2.076674
H     -5.960024    1.162762   -2.103345
H     -6.389495   -0.097102   -0.924318
H     -6.935381    1.570718   -0.679926
H     -3.200396    1.515682   -1.672912
H      1.061155    1.452652    1.446011
H      1.087270    4.019880   -1.434235
H      6.155981    3.712849   -2.132737
H      6.855253    2.279413   -2.920155
H      5.285207    2.899736   -3.448333
H      3.241194    1.343957   -2.283554
