
  xtb     03162223563D
 xtb: 6.3.3 (4ae9cef)
 74 78  0     0  0            999 V2000
    0.9311   -1.9901    2.0518 C   0  0  0  0  0  0  0  0  0  0  0  0
    0.7397   -0.6831    2.3775 O   0  0  0  0  0  0  0  0  0  0  0  0
    0.7790   -0.3075    3.7355 C   0  0  0  0  0  0  0  0  0  0  0  0
    1.1364   -3.0053    2.9785 C   0  0  0  0  0  0  0  0  0  0  0  0
    1.3155   -4.3113    2.5577 C   0  0  0  0  0  0  0  0  0  0  0  0
    1.2916   -4.6239    1.2122 C   0  0  0  0  0  0  0  0  0  0  0  0
    1.0886   -3.6168    0.2850 C   0  0  0  0  0  0  0  0  0  0  0  0
    0.9046   -2.3044    0.6839 C   0  0  0  0  0  0  0  0  0  0  0  0
    0.6913   -1.2301   -0.3525 C   0  0  0  0  0  0  0  0  0  0  0  0
   -0.6336   -0.4595   -0.1749 C   0  0  0  0  0  0  0  0  0  0  0  0
   -1.5488   -0.6362   -1.3609 C   0  0  0  0  0  0  0  0  0  0  0  0
   -1.1696   -0.1753   -2.6112 C   0  0  0  0  0  0  0  0  0  0  0  0
   -2.0040   -0.3253   -3.7052 C   0  0  0  0  0  0  0  0  0  0  0  0
   -3.2274   -0.9488   -3.5468 C   0  0  0  0  0  0  0  0  0  0  0  0
   -3.6222   -1.4208   -2.3067 C   0  0  0  0  0  0  0  0  0  0  0  0
   -2.7897   -1.2713   -1.2032 C   0  0  0  0  0  0  0  0  0  0  0  0
   -3.0992   -1.6782    0.0567 O   0  0  0  0  0  0  0  0  0  0  0  0
   -4.3425   -2.2956    0.2914 C   0  0  0  0  0  0  0  0  0  0  0  0
   -0.2149    0.9237   -0.0287 N   0  0  0  0  0  0  0  0  0  0  0  0
   -0.9764    2.0223   -0.1522 C   0  0  0  0  0  0  0  0  0  0  0  0
   -2.4442    1.7823   -0.1920 C   0  0  0  0  0  0  0  0  0  0  0  0
   -3.2538    1.3568    0.8275 C   0  0  0  0  0  0  0  0  0  0  0  0
   -2.9576    1.0550    2.2554 C   0  0  0  0  0  0  0  0  0  0  0  0
   -3.0486   -0.2530    2.5629 F   0  0  0  0  0  0  0  0  0  0  0  0
   -1.7210    1.4348    2.5932 F   0  0  0  0  0  0  0  0  0  0  0  0
   -3.8023    1.6814    3.0902 F   0  0  0  0  0  0  0  0  0  0  0  0
   -4.5393    1.2911    0.4175 O   0  0  0  0  0  0  0  0  0  0  0  0
   -4.5689    1.6799   -0.8716 C   0  0  0  0  0  0  0  0  0  0  0  0
   -5.8755    1.6993   -1.5747 C   0  0  0  0  0  0  0  0  0  0  0  0
   -3.3125    2.0047   -1.2927 C   0  0  0  0  0  0  0  0  0  0  0  0
   -0.4901    3.1362   -0.2280 O   0  0  0  0  0  0  0  0  0  0  0  0
    1.2158    1.0773    0.1179 C   0  0  0  0  0  0  0  0  0  0  0  0
    1.7141    2.2512   -0.7506 C   0  0  0  0  0  0  0  0  0  0  0  0
    1.3655    2.0918   -2.0297 O   0  0  0  0  0  0  0  0  0  0  0  0
    2.4189    3.1343   -0.3560 O   0  0  0  0  0  0  0  0  0  0  0  0
    1.7276   -0.2030   -0.2965 N   0  0  0  0  0  0  0  0  0  0  0  0
    2.9882   -0.5130   -0.6746 C   0  0  0  0  0  0  0  0  0  0  0  0
    3.9871    0.5770   -0.4898 C   0  0  0  0  0  0  0  0  0  0  0  0
    4.5285    1.0336    0.6828 C   0  0  0  0  0  0  0  0  0  0  0  0
    4.2925    0.6229    2.0926 C   0  0  0  0  0  0  0  0  0  0  0  0
    3.4549    1.4457    2.7569 F   0  0  0  0  0  0  0  0  0  0  0  0
    3.7425   -0.5974    2.1716 F   0  0  0  0  0  0  0  0  0  0  0  0
    5.4215    0.5878    2.8135 F   0  0  0  0  0  0  0  0  0  0  0  0
    5.4396    1.9976    0.4428 O   0  0  0  0  0  0  0  0  0  0  0  0
    5.5002    2.1711   -0.8872 C   0  0  0  0  0  0  0  0  0  0  0  0
    6.4151    3.2092   -1.4217 C   0  0  0  0  0  0  0  0  0  0  0  0
    4.6402    1.3132   -1.5120 C   0  0  0  0  0  0  0  0  0  0  0  0
    3.2858   -1.5923   -1.1388 O   0  0  0  0  0  0  0  0  0  0  0  0
    0.6300    0.7710    3.7446 H   0  0  0  0  0  0  0  0  0  0  0  0
   -0.0225   -0.7884    4.3045 H   0  0  0  0  0  0  0  0  0  0  0  0
    1.7457   -0.5454    4.1878 H   0  0  0  0  0  0  0  0  0  0  0  0
    1.1629   -2.7851    4.0333 H   0  0  0  0  0  0  0  0  0  0  0  0
    1.4775   -5.0850    3.2935 H   0  0  0  0  0  0  0  0  0  0  0  0
    1.4363   -5.6414    0.8843 H   0  0  0  0  0  0  0  0  0  0  0  0
    1.0828   -3.8477   -0.7693 H   0  0  0  0  0  0  0  0  0  0  0  0
    0.7394   -1.6994   -1.3427 H   0  0  0  0  0  0  0  0  0  0  0  0
   -1.1430   -0.8010    0.7308 H   0  0  0  0  0  0  0  0  0  0  0  0
   -0.2162    0.3196   -2.7200 H   0  0  0  0  0  0  0  0  0  0  0  0
   -1.6993    0.0403   -4.6734 H   0  0  0  0  0  0  0  0  0  0  0  0
   -3.8869   -1.0736   -4.3925 H   0  0  0  0  0  0  0  0  0  0  0  0
   -4.5810   -1.9043   -2.2089 H   0  0  0  0  0  0  0  0  0  0  0  0
   -4.3558   -2.5156    1.3572 H   0  0  0  0  0  0  0  0  0  0  0  0
   -5.1744   -1.6261    0.0503 H   0  0  0  0  0  0  0  0  0  0  0  0
   -4.4420   -3.2261   -0.2753 H   0  0  0  0  0  0  0  0  0  0  0  0
   -5.7137    1.7624   -2.6460 H   0  0  0  0  0  0  0  0  0  0  0  0
   -6.4408    0.7994   -1.3429 H   0  0  0  0  0  0  0  0  0  0  0  0
   -6.4659    2.5574   -1.2542 H   0  0  0  0  0  0  0  0  0  0  0  0
   -3.0201    2.3448   -2.2633 H   0  0  0  0  0  0  0  0  0  0  0  0
    1.4656    1.3130    1.1651 H   0  0  0  0  0  0  0  0  0  0  0  0
    1.6455    2.8639   -2.5466 H   0  0  0  0  0  0  0  0  0  0  0  0
    6.0108    4.1993   -1.2140 H   0  0  0  0  0  0  0  0  0  0  0  0
    7.3877    3.1346   -0.9403 H   0  0  0  0  0  0  0  0  0  0  0  0
    6.5279    3.0885   -2.4945 H   0  0  0  0  0  0  0  0  0  0  0  0
    4.4759    1.2069   -2.5641 H   0  0  0  0  0  0  0  0  0  0  0  0
  1  2  1  0  0  0  0
  2  3  1  0  0  0  0
  1  4  4  0  0  0  0
  4  5  4  0  0  0  0
  5  6  4  0  0  0  0
  6  7  4  0  0  0  0
  1  8  4  0  0  0  0
  7  8  4  0  0  0  0
  8  9  1  0  0  0  0
  9 10  1  0  0  0  0
 10 11  1  0  0  0  0
 11 12  4  0  0  0  0
 12 13  4  0  0  0  0
 13 14  4  0  0  0  0
 14 15  4  0  0  0  0
 11 16  4  0  0  0  0
 15 16  4  0  0  0  0
 16 17  1  0  0  0  0
 17 18  1  0  0  0  0
 10 19  1  0  0  0  0
 19 20  4  0  0  0  0
 20 21  1  0  0  0  0
 21 22  2  0  0  0  0
 22 23  1  0  0  0  0
 23 24  1  0  0  0  0
 23 25  1  0  0  0  0
 23 26  1  0  0  0  0
 22 27  1  0  0  0  0
 27 28  1  0  0  0  0
 28 29  1  0  0  0  0
 21 30  4  0  0  0  0
 28 30  2  0  0  0  0
 20 31  2  0  0  0  0
 19 32  1  0  0  0  0
 32 33  1  0  0  0  0
 33 34  1  0  0  0  0
 33 35  2  0  0  0  0
  9 36  1  0  0  0  0
 32 36  1  0  0  0  0
 36 37  4  0  0  0  0
 37 38  1  0  0  0  0
 38 39  2  0  0  0  0
 39 40  1  0  0  0  0
 40 41  1  0  0  0  0
 40 42  1  0  0  0  0
 40 43  1  0  0  0  0
 39 44  1  0  0  0  0
 44 45  1  0  0  0  0
 45 46  1  0  0  0  0
 38 47  4  0  0  0  0
 45 47  2  0  0  0  0
 37 48  2  0  0  0  0
  3 49  1  0  0  0  0
  3 50  1  0  0  0  0
  3 51  1  0  0  0  0
  4 52  1  0  0  0  0
  5 53  1  0  0  0  0
  6 54  1  0  0  0  0
  7 55  1  0  0  0  0
  9 56  1  0  0  0  0
 10 57  1  0  0  0  0
 12 58  1  0  0  0  0
 13 59  1  0  0  0  0
 14 60  1  0  0  0  0
 15 61  1  0  0  0  0
 18 62  1  0  0  0  0
 18 63  1  0  0  0  0
 18 64  1  0  0  0  0
 29 65  1  0  0  0  0
 29 66  1  0  0  0  0
 29 67  1  0  0  0  0
 30 68  1  0  0  0  0
 32 69  1  0  0  0  0
 34 70  1  0  0  0  0
 46 71  1  0  0  0  0
 46 72  1  0  0  0  0
 46 73  1  0  0  0  0
 47 74  1  0  0  0  0
M  END
