60

C     -2.114877   -2.250404   -0.133869
C     -1.651580   -2.911985    1.151230
F     -2.143520   -4.169930    1.334982
F     -0.298857   -3.032360    1.214085
F     -2.014617   -2.207287    2.255975
C     -3.066494   -2.935671   -0.918292
C     -3.535533   -2.403556   -2.115263
C     -3.060743   -1.177854   -2.555213
C     -2.115967   -0.484291   -1.797919
C     -1.636528   -0.985791   -0.570760
C     -0.597543   -0.189434    0.222883
C      0.824424   -0.249327   -0.431599
C      1.794572   -1.108691    0.381396
C      2.395435   -2.277736   -0.149885
C      2.055405   -2.812788   -1.526066
F      2.619109   -4.023711   -1.803098
F      2.426626   -1.988610   -2.539737
F      0.712422   -3.001657   -1.675301
C      3.323029   -2.990019    0.638350
C      3.639207   -2.578858    1.932874
C      3.035095   -1.449079    2.464859
C      2.123791   -0.722430    1.698515
N      1.261893    1.149700   -0.503660
C      2.511508    1.500566   -0.985467
C      2.936089    2.882837   -0.866669
C      3.201623    3.592334    0.290736
Br     3.076187    2.961508    2.085653
O      3.609182    4.857221   -0.011914
C      3.655674    4.951646   -1.362642
C      3.279975    3.761966   -1.937021
O      3.251542    0.676145   -1.515174
C      0.155578    2.066373   -0.273056
C     -0.358435    2.719830   -1.600620
O     -1.694189    2.914092   -1.663335
O      0.329538    3.105487   -2.535544
N     -0.888024    1.253383    0.331562
C     -1.800610    1.879630    1.158614
C     -2.808691    1.057740    1.785163
C     -2.812069    0.650228    3.104108
Br    -1.446314    0.985332    4.390830
O     -3.937317   -0.069542    3.372295
C     -4.669330   -0.108165    2.230255
C     -4.027506    0.575117    1.226844
O     -1.770434    3.090163    1.358853
H     -3.443961   -3.905825   -0.597375
H     -4.265067   -2.950852   -2.708761
H     -3.417466   -0.761453   -3.495054
H     -1.766749    0.462712   -2.190113
H     -0.577346   -0.553123    1.254154
H      0.765604   -0.590663   -1.470371
H      3.799201   -3.888857    0.246087
H      4.354091   -3.145405    2.524991
H      3.268937   -1.134576    3.478045
H      1.669216    0.157858    2.147404
H      3.980549    5.905141   -1.756053
H      3.234832    3.545922   -2.994818
H      0.456758    2.878125    0.396033
H     -1.830860    3.401292   -2.502522
H     -5.606305   -0.642250    2.292291
H     -4.390158    0.719831    0.218101
