
  xtb     03162222033D
 xtb: 6.3.3 (4ae9cef)
 72 78  0     0  0            999 V2000
    2.5799    1.5473    2.0521 O   0  0  0  0  0  0  0  0  0  0  0  0
    1.8091    0.6792    1.7109 C   0  0  0  0  0  0  0  0  0  0  0  0
    1.9250   -0.7612    2.1075 C   0  0  0  0  0  0  0  0  0  0  0  0
    1.1982   -1.2562    3.1613 C   0  0  0  0  0  0  0  0  0  0  0  0
    1.2883   -2.6121    3.5134 C   0  0  0  0  0  0  0  0  0  0  0  0
    2.0994   -3.4543    2.8048 C   0  0  0  0  0  0  0  0  0  0  0  0
    2.8728   -2.9769    1.7262 C   0  0  0  0  0  0  0  0  0  0  0  0
    2.7967   -1.6034    1.3730 C   0  0  0  0  0  0  0  0  0  0  0  0
    3.5781   -1.1237    0.3011 C   0  0  0  0  0  0  0  0  0  0  0  0
    4.3906   -1.9730   -0.3957 C   0  0  0  0  0  0  0  0  0  0  0  0
    4.4603   -3.3328   -0.0552 C   0  0  0  0  0  0  0  0  0  0  0  0
    3.7219   -3.8236    0.9843 C   0  0  0  0  0  0  0  0  0  0  0  0
    0.7425    0.9311    0.9035 N   0  0  0  0  0  0  0  0  0  0  0  0
   -0.3141    0.0003    0.5968 C   0  0  0  0  0  0  0  0  0  0  0  0
    0.2028   -1.1645   -0.2956 C   0  0  0  0  0  0  0  0  0  0  0  0
    0.0832   -2.3961    0.2012 O   0  0  0  0  0  0  0  0  0  0  0  0
    0.6675   -0.9654   -1.3781 O   0  0  0  0  0  0  0  0  0  0  0  0
   -1.2745    0.7942   -0.1280 N   0  0  0  0  0  0  0  0  0  0  0  0
   -2.4201    0.3151   -0.6914 C   0  0  0  0  0  0  0  0  0  0  0  0
   -2.7607   -1.0781   -0.2603 C   0  0  0  0  0  0  0  0  0  0  0  0
   -2.6427   -2.1511   -1.1785 C   0  0  0  0  0  0  0  0  0  0  0  0
   -2.2044   -1.9635   -2.5059 C   0  0  0  0  0  0  0  0  0  0  0  0
   -2.0875   -3.0286   -3.3537 C   0  0  0  0  0  0  0  0  0  0  0  0
   -2.3987   -4.3254   -2.9165 C   0  0  0  0  0  0  0  0  0  0  0  0
   -2.8270   -4.5381   -1.6369 C   0  0  0  0  0  0  0  0  0  0  0  0
   -2.9607   -3.4626   -0.7346 C   0  0  0  0  0  0  0  0  0  0  0  0
   -3.4020   -3.6543    0.5911 C   0  0  0  0  0  0  0  0  0  0  0  0
   -3.5312   -2.5962    1.4472 C   0  0  0  0  0  0  0  0  0  0  0  0
   -3.2055   -1.3007    1.0197 C   0  0  0  0  0  0  0  0  0  0  0  0
   -3.1010    0.9836   -1.4353 O   0  0  0  0  0  0  0  0  0  0  0  0
   -0.7591    2.1082   -0.4937 C   0  0  0  0  0  0  0  0  0  0  0  0
   -1.7645    3.1965   -0.2262 C   0  0  0  0  0  0  0  0  0  0  0  0
   -2.4778    3.2145    0.9653 C   0  0  0  0  0  0  0  0  0  0  0  0
   -3.3842    4.2264    1.2222 C   0  0  0  0  0  0  0  0  0  0  0  0
   -3.5772    5.2360    0.2946 C   0  0  0  0  0  0  0  0  0  0  0  0
   -2.8612    5.2280   -0.8900 C   0  0  0  0  0  0  0  0  0  0  0  0
   -1.9592    4.2119   -1.1503 C   0  0  0  0  0  0  0  0  0  0  0  0
    0.5059    2.2684    0.3696 C   0  0  0  0  0  0  0  0  0  0  0  0
    1.6827    2.7740   -0.4231 C   0  0  0  0  0  0  0  0  0  0  0  0
    2.2615    1.9732   -1.4005 C   0  0  0  0  0  0  0  0  0  0  0  0
    3.3402    2.4403   -2.1297 C   0  0  0  0  0  0  0  0  0  0  0  0
    3.8400    3.7107   -1.8985 C   0  0  0  0  0  0  0  0  0  0  0  0
    3.2571    4.5145   -0.9341 C   0  0  0  0  0  0  0  0  0  0  0  0
    2.1836    4.0472   -0.1968 C   0  0  0  0  0  0  0  0  0  0  0  0
    0.5603   -0.5977    3.7350 H   0  0  0  0  0  0  0  0  0  0  0  0
    0.7112   -2.9791    4.3493 H   0  0  0  0  0  0  0  0  0  0  0  0
    2.1665   -4.5000    3.0676 H   0  0  0  0  0  0  0  0  0  0  0  0
    3.5334   -0.0752    0.0473 H   0  0  0  0  0  0  0  0  0  0  0  0
    4.9858   -1.6006   -1.2157 H   0  0  0  0  0  0  0  0  0  0  0  0
    5.1061   -3.9879   -0.6211 H   0  0  0  0  0  0  0  0  0  0  0  0
    3.7751   -4.8683    1.2547 H   0  0  0  0  0  0  0  0  0  0  0  0
   -0.7605   -0.4109    1.5213 H   0  0  0  0  0  0  0  0  0  0  0  0
   -0.2797   -2.4341    1.0975 H   0  0  0  0  0  0  0  0  0  0  0  0
   -1.9696   -0.9659   -2.8435 H   0  0  0  0  0  0  0  0  0  0  0  0
   -1.7513   -2.8778   -4.3683 H   0  0  0  0  0  0  0  0  0  0  0  0
   -2.2972   -5.1541   -3.6016 H   0  0  0  0  0  0  0  0  0  0  0  0
   -3.0701   -5.5337   -1.2940 H   0  0  0  0  0  0  0  0  0  0  0  0
   -3.6461   -4.6553    0.9163 H   0  0  0  0  0  0  0  0  0  0  0  0
   -3.8855   -2.7455    2.4564 H   0  0  0  0  0  0  0  0  0  0  0  0
   -3.3235   -0.4693    1.7010 H   0  0  0  0  0  0  0  0  0  0  0  0
   -0.4953    2.1074   -1.5594 H   0  0  0  0  0  0  0  0  0  0  0  0
   -2.3284    2.4271    1.6913 H   0  0  0  0  0  0  0  0  0  0  0  0
   -3.9414    4.2277    2.1476 H   0  0  0  0  0  0  0  0  0  0  0  0
   -4.2865    6.0253    0.4945 H   0  0  0  0  0  0  0  0  0  0  0  0
   -3.0096    6.0126   -1.6169 H   0  0  0  0  0  0  0  0  0  0  0  0
   -1.4055    4.2020   -2.0775 H   0  0  0  0  0  0  0  0  0  0  0  0
    0.3155    2.9520    1.2084 H   0  0  0  0  0  0  0  0  0  0  0  0
    1.8717    0.9832   -1.5897 H   0  0  0  0  0  0  0  0  0  0  0  0
    3.7901    1.8087   -2.8815 H   0  0  0  0  0  0  0  0  0  0  0  0
    4.6829    4.0730   -2.4683 H   0  0  0  0  0  0  0  0  0  0  0  0
    3.6429    5.5062   -0.7502 H   0  0  0  0  0  0  0  0  0  0  0  0
    1.7351    4.6712    0.5621 H   0  0  0  0  0  0  0  0  0  0  0  0
  1  2  2  0  0  0  0
  2  3  1  0  0  0  0
  3  4  2  0  0  0  0
  4  5  4  0  0  0  0
  5  6  2  0  0  0  0
  6  7  4  0  0  0  0
  3  8  4  0  0  0  0
  7  8  4  0  0  0  0
  8  9  4  0  0  0  0
  9 10  2  0  0  0  0
 10 11  4  0  0  0  0
  7 12  4  0  0  0  0
 11 12  2  0  0  0  0
  2 13  1  0  0  0  0
 13 14  1  0  0  0  0
 14 15  1  0  0  0  0
 15 16  1  0  0  0  0
 15 17  2  0  0  0  0
 14 18  1  0  0  0  0
 18 19  1  0  0  0  0
 19 20  1  0  0  0  0
 20 21  4  0  0  0  0
 21 22  4  0  0  0  0
 22 23  2  0  0  0  0
 23 24  4  0  0  0  0
 24 25  2  0  0  0  0
 21 26  4  0  0  0  0
 25 26  4  0  0  0  0
 26 27  4  0  0  0  0
 27 28  2  0  0  0  0
 20 29  2  0  0  0  0
 28 29  4  0  0  0  0
 19 30  2  0  0  0  0
 18 31  1  0  0  0  0
 31 32  1  0  0  0  0
 32 33  4  0  0  0  0
 33 34  4  0  0  0  0
 34 35  4  0  0  0  0
 35 36  4  0  0  0  0
 32 37  4  0  0  0  0
 36 37  4  0  0  0  0
 13 38  1  0  0  0  0
 31 38  1  0  0  0  0
 38 39  1  0  0  0  0
 39 40  4  0  0  0  0
 40 41  4  0  0  0  0
 41 42  4  0  0  0  0
 42 43  4  0  0  0  0
 39 44  4  0  0  0  0
 43 44  4  0  0  0  0
  4 45  1  0  0  0  0
  5 46  1  0  0  0  0
  6 47  1  0  0  0  0
  9 48  1  0  0  0  0
 10 49  1  0  0  0  0
 11 50  1  0  0  0  0
 12 51  1  0  0  0  0
 14 52  1  0  0  0  0
 16 53  1  0  0  0  0
 22 54  1  0  0  0  0
 23 55  1  0  0  0  0
 24 56  1  0  0  0  0
 25 57  1  0  0  0  0
 27 58  1  0  0  0  0
 28 59  1  0  0  0  0
 29 60  1  0  0  0  0
 31 61  1  0  0  0  0
 33 62  1  0  0  0  0
 34 63  1  0  0  0  0
 35 64  1  0  0  0  0
 36 65  1  0  0  0  0
 37 66  1  0  0  0  0
 38 67  1  0  0  0  0
 40 68  1  0  0  0  0
 41 69  1  0  0  0  0
 42 70  1  0  0  0  0
 43 71  1  0  0  0  0
 44 72  1  0  0  0  0
M  END
