
  xtb     03162223363D
 xtb: 6.3.3 (4ae9cef)
 68 72  0     0  0            999 V2000
   -3.3810    2.0869    0.5377 C   0  0  0  0  0  0  0  0  0  0  0  0
   -3.1598    3.0236   -0.4260 O   0  0  0  0  0  0  0  0  0  0  0  0
   -4.1942    3.9268   -0.7402 C   0  0  0  0  0  0  0  0  0  0  0  0
   -4.4994    2.0558    1.3626 C   0  0  0  0  0  0  0  0  0  0  0  0
   -4.6201    1.0824    2.3391 C   0  0  0  0  0  0  0  0  0  0  0  0
   -3.6303    0.1337    2.5119 C   0  0  0  0  0  0  0  0  0  0  0  0
   -2.5203    0.1544    1.6864 C   0  0  0  0  0  0  0  0  0  0  0  0
   -2.3864    1.1118    0.6956 C   0  0  0  0  0  0  0  0  0  0  0  0
   -1.1926    1.1103   -0.2260 C   0  0  0  0  0  0  0  0  0  0  0  0
    0.1078    1.5575    0.4794 C   0  0  0  0  0  0  0  0  0  0  0  0
    0.9111    2.5365   -0.3553 C   0  0  0  0  0  0  0  0  0  0  0  0
    0.3027    3.7585   -0.6142 C   0  0  0  0  0  0  0  0  0  0  0  0
    0.9388    4.7448   -1.3432 C   0  0  0  0  0  0  0  0  0  0  0  0
    2.2194    4.5164   -1.8111 C   0  0  0  0  0  0  0  0  0  0  0  0
    2.8474    3.3116   -1.5591 C   0  0  0  0  0  0  0  0  0  0  0  0
    2.2073    2.3056   -0.8377 C   0  0  0  0  0  0  0  0  0  0  0  0
    2.7803    1.0948   -0.5776 O   0  0  0  0  0  0  0  0  0  0  0  0
    4.0595    0.8180   -1.1025 C   0  0  0  0  0  0  0  0  0  0  0  0
    0.7537    0.2988    0.7965 N   0  0  0  0  0  0  0  0  0  0  0  0
    1.5856    0.1867    1.8673 C   0  0  0  0  0  0  0  0  0  0  0  0
    2.1591   -1.1768    2.0892 C   0  0  0  0  0  0  0  0  0  0  0  0
    3.5217   -1.3691    1.9037 C   0  0  0  0  0  0  0  0  0  0  0  0
    4.0877   -2.6129    2.1109 C   0  0  0  0  0  0  0  0  0  0  0  0
    3.2738   -3.6518    2.5236 C   0  0  0  0  0  0  0  0  0  0  0  0
    3.8160   -4.8678    2.7293 F   0  0  0  0  0  0  0  0  0  0  0  0
    1.9203   -3.4778    2.7493 C   0  0  0  0  0  0  0  0  0  0  0  0
    1.3658   -2.2303    2.5293 C   0  0  0  0  0  0  0  0  0  0  0  0
    1.8284    1.1345    2.5814 O   0  0  0  0  0  0  0  0  0  0  0  0
    0.3661   -0.7321   -0.1303 C   0  0  0  0  0  0  0  0  0  0  0  0
    1.4174   -0.9589   -1.2597 C   0  0  0  0  0  0  0  0  0  0  0  0
    1.1850   -0.3001   -2.3921 O   0  0  0  0  0  0  0  0  0  0  0  0
    2.3228   -1.7285   -1.1286 O   0  0  0  0  0  0  0  0  0  0  0  0
   -0.8810   -0.2466   -0.6731 N   0  0  0  0  0  0  0  0  0  0  0  0
   -1.7930   -0.9982   -1.3539 C   0  0  0  0  0  0  0  0  0  0  0  0
   -1.3923   -2.4356   -1.5025 C   0  0  0  0  0  0  0  0  0  0  0  0
   -1.6847   -3.3190   -0.4687 C   0  0  0  0  0  0  0  0  0  0  0  0
   -1.3367   -4.6526   -0.5715 C   0  0  0  0  0  0  0  0  0  0  0  0
   -0.6948   -5.0835   -1.7194 C   0  0  0  0  0  0  0  0  0  0  0  0
   -0.3504   -6.3800   -1.8228 F   0  0  0  0  0  0  0  0  0  0  0  0
   -0.4056   -4.2253   -2.7643 C   0  0  0  0  0  0  0  0  0  0  0  0
   -0.7619   -2.8933   -2.6518 C   0  0  0  0  0  0  0  0  0  0  0  0
   -2.8164   -0.5268   -1.7940 O   0  0  0  0  0  0  0  0  0  0  0  0
   -4.4072    4.6007    0.0958 H   0  0  0  0  0  0  0  0  0  0  0  0
   -3.8271    4.5079   -1.5848 H   0  0  0  0  0  0  0  0  0  0  0  0
   -5.1077    3.4014   -1.0317 H   0  0  0  0  0  0  0  0  0  0  0  0
   -5.2842    2.7865    1.2507 H   0  0  0  0  0  0  0  0  0  0  0  0
   -5.4971    1.0714    2.9684 H   0  0  0  0  0  0  0  0  0  0  0  0
   -3.7232   -0.6197    3.2787 H   0  0  0  0  0  0  0  0  0  0  0  0
   -1.7446   -0.5875    1.8103 H   0  0  0  0  0  0  0  0  0  0  0  0
   -1.4252    1.7417   -1.0891 H   0  0  0  0  0  0  0  0  0  0  0  0
   -0.1188    2.0523    1.4321 H   0  0  0  0  0  0  0  0  0  0  0  0
   -0.6934    3.9279   -0.2331 H   0  0  0  0  0  0  0  0  0  0  0  0
    0.4439    5.6840   -1.5338 H   0  0  0  0  0  0  0  0  0  0  0  0
    2.7403    5.2774   -2.3721 H   0  0  0  0  0  0  0  0  0  0  0  0
    3.8500    3.1606   -1.9239 H   0  0  0  0  0  0  0  0  0  0  0  0
    4.0819    0.9505   -2.1877 H   0  0  0  0  0  0  0  0  0  0  0  0
    4.8248    1.4425   -0.6328 H   0  0  0  0  0  0  0  0  0  0  0  0
    4.2419   -0.2312   -0.8737 H   0  0  0  0  0  0  0  0  0  0  0  0
    4.1337   -0.5363    1.5973 H   0  0  0  0  0  0  0  0  0  0  0  0
    5.1415   -2.7842    1.9606 H   0  0  0  0  0  0  0  0  0  0  0  0
    1.3226   -4.3075    3.0922 H   0  0  0  0  0  0  0  0  0  0  0  0
    0.3144   -2.0740    2.7267 H   0  0  0  0  0  0  0  0  0  0  0  0
    0.2648   -1.7001    0.3796 H   0  0  0  0  0  0  0  0  0  0  0  0
    0.4092    0.2807   -2.3172 H   0  0  0  0  0  0  0  0  0  0  0  0
   -2.1997   -2.9606    0.4109 H   0  0  0  0  0  0  0  0  0  0  0  0
   -1.5566   -5.3544    0.2170 H   0  0  0  0  0  0  0  0  0  0  0  0
    0.0897   -4.6000   -3.6454 H   0  0  0  0  0  0  0  0  0  0  0  0
   -0.5510   -2.2124   -3.4621 H   0  0  0  0  0  0  0  0  0  0  0  0
  1  2  1  0  0  0  0
  2  3  1  0  0  0  0
  1  4  4  0  0  0  0
  4  5  4  0  0  0  0
  5  6  4  0  0  0  0
  6  7  4  0  0  0  0
  1  8  4  0  0  0  0
  7  8  4  0  0  0  0
  8  9  1  0  0  0  0
  9 10  1  0  0  0  0
 10 11  1  0  0  0  0
 11 12  4  0  0  0  0
 12 13  4  0  0  0  0
 13 14  4  0  0  0  0
 14 15  4  0  0  0  0
 11 16  4  0  0  0  0
 15 16  4  0  0  0  0
 16 17  1  0  0  0  0
 17 18  1  0  0  0  0
 10 19  1  0  0  0  0
 19 20  1  0  0  0  0
 20 21  1  0  0  0  0
 21 22  4  0  0  0  0
 22 23  4  0  0  0  0
 23 24  4  0  0  0  0
 24 25  1  0  0  0  0
 24 26  4  0  0  0  0
 21 27  4  0  0  0  0
 26 27  4  0  0  0  0
 20 28  2  0  0  0  0
 19 29  1  0  0  0  0
 29 30  1  0  0  0  0
 30 31  1  0  0  0  0
 30 32  2  0  0  0  0
  9 33  1  0  0  0  0
 29 33  1  0  0  0  0
 33 34  1  0  0  0  0
 34 35  1  0  0  0  0
 35 36  4  0  0  0  0
 36 37  4  0  0  0  0
 37 38  4  0  0  0  0
 38 39  1  0  0  0  0
 38 40  4  0  0  0  0
 35 41  4  0  0  0  0
 40 41  4  0  0  0  0
 34 42  2  0  0  0  0
  3 43  1  0  0  0  0
  3 44  1  0  0  0  0
  3 45  1  0  0  0  0
  4 46  1  0  0  0  0
  5 47  1  0  0  0  0
  6 48  1  0  0  0  0
  7 49  1  0  0  0  0
  9 50  1  0  0  0  0
 10 51  1  0  0  0  0
 12 52  1  0  0  0  0
 13 53  1  0  0  0  0
 14 54  1  0  0  0  0
 15 55  1  0  0  0  0
 18 56  1  0  0  0  0
 18 57  1  0  0  0  0
 18 58  1  0  0  0  0
 22 59  1  0  0  0  0
 23 60  1  0  0  0  0
 26 61  1  0  0  0  0
 27 62  1  0  0  0  0
 29 63  1  0  0  0  0
 31 64  1  0  0  0  0
 36 65  1  0  0  0  0
 37 66  1  0  0  0  0
 40 67  1  0  0  0  0
 41 68  1  0  0  0  0
M  END
