
  xtb     03162222423D
 xtb: 6.3.3 (4ae9cef)
 84 90  0     0  0            999 V2000
    1.5144   -2.5220   -2.7333 C   0  0  0  0  0  0  0  0  0  0  0  0
    2.3744   -3.4669   -3.2061 C   0  0  0  0  0  0  0  0  0  0  0  0
    2.8353   -4.5066   -2.3707 C   0  0  0  0  0  0  0  0  0  0  0  0
    3.7230   -5.5023   -2.8250 C   0  0  0  0  0  0  0  0  0  0  0  0
    4.1430   -6.4979   -1.9873 C   0  0  0  0  0  0  0  0  0  0  0  0
    3.6913   -6.5429   -0.6595 C   0  0  0  0  0  0  0  0  0  0  0  0
    2.8297   -5.5908   -0.1905 C   0  0  0  0  0  0  0  0  0  0  0  0
    2.3820   -4.5487   -1.0280 C   0  0  0  0  0  0  0  0  0  0  0  0
    1.5008   -3.5494   -0.5643 C   0  0  0  0  0  0  0  0  0  0  0  0
    1.0791   -2.5447   -1.3900 C   0  0  0  0  0  0  0  0  0  0  0  0
    0.1038   -1.4809   -0.9747 C   0  0  0  0  0  0  0  0  0  0  0  0
   -0.3684   -1.4248    0.4949 C   0  0  0  0  0  0  0  0  0  0  0  0
   -1.4436   -2.4129    0.8493 C   0  0  0  0  0  0  0  0  0  0  0  0
   -1.2121   -3.3983    1.7723 C   0  0  0  0  0  0  0  0  0  0  0  0
   -2.2046   -4.3424    2.0999 C   0  0  0  0  0  0  0  0  0  0  0  0
   -1.9801   -5.3679    3.0421 C   0  0  0  0  0  0  0  0  0  0  0  0
   -2.9640   -6.2676    3.3418 C   0  0  0  0  0  0  0  0  0  0  0  0
   -4.2169   -6.1841    2.7139 C   0  0  0  0  0  0  0  0  0  0  0  0
   -4.4653   -5.2011    1.7973 C   0  0  0  0  0  0  0  0  0  0  0  0
   -3.4713   -4.2573    1.4668 C   0  0  0  0  0  0  0  0  0  0  0  0
   -3.6941   -3.2181    0.5403 C   0  0  0  0  0  0  0  0  0  0  0  0
   -2.7098   -2.3216    0.2387 C   0  0  0  0  0  0  0  0  0  0  0  0
   -0.8343   -0.0371    0.5868 N   0  0  0  0  0  0  0  0  0  0  0  0
   -1.2665    0.5101    1.7534 C   0  0  0  0  0  0  0  0  0  0  0  0
   -1.5188    1.9835    1.6515 C   0  0  0  0  0  0  0  0  0  0  0  0
   -0.4624    2.8751    1.8014 C   0  0  0  0  0  0  0  0  0  0  0  0
   -0.6813    4.2346    1.6799 C   0  0  0  0  0  0  0  0  0  0  0  0
   -1.9517    4.7283    1.4117 C   0  0  0  0  0  0  0  0  0  0  0  0
   -2.1757    6.2005    1.2147 C   0  0  0  0  0  0  0  0  0  0  0  0
   -2.1262    6.5513   -0.2739 C   0  0  0  0  0  0  0  0  0  0  0  0
   -3.0031    3.8294    1.2796 C   0  0  0  0  0  0  0  0  0  0  0  0
   -2.7943    2.4674    1.3986 C   0  0  0  0  0  0  0  0  0  0  0  0
   -1.4166   -0.1419    2.7617 O   0  0  0  0  0  0  0  0  0  0  0  0
   -0.4722    0.6947   -0.6109 C   0  0  0  0  0  0  0  0  0  0  0  0
   -1.6655    0.8410   -1.5679 C   0  0  0  0  0  0  0  0  0  0  0  0
   -1.2706    1.2093   -2.7854 O   0  0  0  0  0  0  0  0  0  0  0  0
   -2.8130    0.6775   -1.2663 O   0  0  0  0  0  0  0  0  0  0  0  0
    0.5738   -0.1043   -1.1989 N   0  0  0  0  0  0  0  0  0  0  0  0
    1.9015    0.2343   -1.0188 C   0  0  0  0  0  0  0  0  0  0  0  0
    2.1758    1.6990   -0.9860 C   0  0  0  0  0  0  0  0  0  0  0  0
    1.6055    2.5878   -1.8926 C   0  0  0  0  0  0  0  0  0  0  0  0
    1.9273    3.9310   -1.8389 C   0  0  0  0  0  0  0  0  0  0  0  0
    2.8177    4.4167   -0.8885 C   0  0  0  0  0  0  0  0  0  0  0  0
    3.1392    5.8813   -0.8135 C   0  0  0  0  0  0  0  0  0  0  0  0
    2.2385    6.5813    0.2061 C   0  0  0  0  0  0  0  0  0  0  0  0
    3.3871    3.5216    0.0100 C   0  0  0  0  0  0  0  0  0  0  0  0
    3.0810    2.1760   -0.0428 C   0  0  0  0  0  0  0  0  0  0  0  0
    2.7865   -0.5859   -0.9315 O   0  0  0  0  0  0  0  0  0  0  0  0
    1.1664   -1.7266   -3.3770 H   0  0  0  0  0  0  0  0  0  0  0  0
    2.7144   -3.4342   -4.2315 H   0  0  0  0  0  0  0  0  0  0  0  0
    4.0672   -5.4634   -3.8490 H   0  0  0  0  0  0  0  0  0  0  0  0
    4.8252   -7.2574   -2.3409 H   0  0  0  0  0  0  0  0  0  0  0  0
    4.0320   -7.3373   -0.0114 H   0  0  0  0  0  0  0  0  0  0  0  0
    2.4798   -5.6223    0.8316 H   0  0  0  0  0  0  0  0  0  0  0  0
    1.1702   -3.6027    0.4601 H   0  0  0  0  0  0  0  0  0  0  0  0
   -0.7916   -1.5928   -1.6075 H   0  0  0  0  0  0  0  0  0  0  0  0
    0.4882   -1.5477    1.1712 H   0  0  0  0  0  0  0  0  0  0  0  0
   -0.2619   -3.4571    2.2844 H   0  0  0  0  0  0  0  0  0  0  0  0
   -1.0150   -5.4273    3.5249 H   0  0  0  0  0  0  0  0  0  0  0  0
   -2.7864   -7.0499    4.0654 H   0  0  0  0  0  0  0  0  0  0  0  0
   -4.9832   -6.9033    2.9642 H   0  0  0  0  0  0  0  0  0  0  0  0
   -5.4291   -5.1314    1.3129 H   0  0  0  0  0  0  0  0  0  0  0  0
   -4.6658   -3.1369    0.0744 H   0  0  0  0  0  0  0  0  0  0  0  0
   -2.9111   -1.5143   -0.4490 H   0  0  0  0  0  0  0  0  0  0  0  0
    0.5309    2.5040    2.0149 H   0  0  0  0  0  0  0  0  0  0  0  0
    0.1457    4.9196    1.7969 H   0  0  0  0  0  0  0  0  0  0  0  0
   -1.4075    6.7664    1.7450 H   0  0  0  0  0  0  0  0  0  0  0  0
   -3.1496    6.4850    1.6174 H   0  0  0  0  0  0  0  0  0  0  0  0
   -2.9108    6.0256   -0.8133 H   0  0  0  0  0  0  0  0  0  0  0  0
   -2.2610    7.6206   -0.4186 H   0  0  0  0  0  0  0  0  0  0  0  0
   -1.1679    6.2603   -0.7001 H   0  0  0  0  0  0  0  0  0  0  0  0
   -3.9983    4.2008    1.0818 H   0  0  0  0  0  0  0  0  0  0  0  0
   -3.6135    1.7740    1.2880 H   0  0  0  0  0  0  0  0  0  0  0  0
   -0.1289    1.7102   -0.3774 H   0  0  0  0  0  0  0  0  0  0  0  0
   -2.0334    1.3129   -3.3789 H   0  0  0  0  0  0  0  0  0  0  0  0
    0.9271    2.2211   -2.6480 H   0  0  0  0  0  0  0  0  0  0  0  0
    1.4869    4.6126   -2.5527 H   0  0  0  0  0  0  0  0  0  0  0  0
    2.9984    6.3413   -1.7935 H   0  0  0  0  0  0  0  0  0  0  0  0
    4.1824    6.0145   -0.5201 H   0  0  0  0  0  0  0  0  0  0  0  0
    2.4649    7.6440    0.2466 H   0  0  0  0  0  0  0  0  0  0  0  0
    1.1927    6.4600   -0.0676 H   0  0  0  0  0  0  0  0  0  0  0  0
    2.3885    6.1576    1.1968 H   0  0  0  0  0  0  0  0  0  0  0  0
    4.0877    3.8825    0.7493 H   0  0  0  0  0  0  0  0  0  0  0  0
    3.5380    1.4783    0.6431 H   0  0  0  0  0  0  0  0  0  0  0  0
  1  2  2  0  0  0  0
  2  3  4  0  0  0  0
  3  4  4  0  0  0  0
  4  5  2  0  0  0  0
  5  6  4  0  0  0  0
  6  7  2  0  0  0  0
  3  8  4  0  0  0  0
  7  8  4  0  0  0  0
  8  9  4  0  0  0  0
  1 10  4  0  0  0  0
  9 10  2  0  0  0  0
 10 11  1  0  0  0  0
 11 12  1  0  0  0  0
 12 13  1  0  0  0  0
 13 14  2  0  0  0  0
 14 15  4  0  0  0  0
 15 16  4  0  0  0  0
 16 17  2  0  0  0  0
 17 18  4  0  0  0  0
 18 19  2  0  0  0  0
 15 20  4  0  0  0  0
 19 20  4  0  0  0  0
 20 21  4  0  0  0  0
 13 22  4  0  0  0  0
 21 22  2  0  0  0  0
 12 23  1  0  0  0  0
 23 24  4  0  0  0  0
 24 25  1  0  0  0  0
 25 26  4  0  0  0  0
 26 27  4  0  0  0  0
 27 28  4  0  0  0  0
 28 29  1  0  0  0  0
 29 30  1  0  0  0  0
 28 31  4  0  0  0  0
 25 32  4  0  0  0  0
 31 32  4  0  0  0  0
 24 33  2  0  0  0  0
 23 34  1  0  0  0  0
 34 35  1  0  0  0  0
 35 36  1  0  0  0  0
 35 37  2  0  0  0  0
 11 38  1  0  0  0  0
 34 38  1  0  0  0  0
 38 39  1  0  0  0  0
 39 40  1  0  0  0  0
 40 41  4  0  0  0  0
 41 42  4  0  0  0  0
 42 43  4  0  0  0  0
 43 44  1  0  0  0  0
 44 45  1  0  0  0  0
 43 46  4  0  0  0  0
 40 47  4  0  0  0  0
 46 47  4  0  0  0  0
 39 48  2  0  0  0  0
  1 49  1  0  0  0  0
  2 50  1  0  0  0  0
  4 51  1  0  0  0  0
  5 52  1  0  0  0  0
  6 53  1  0  0  0  0
  7 54  1  0  0  0  0
  9 55  1  0  0  0  0
 11 56  1  0  0  0  0
 12 57  1  0  0  0  0
 14 58  1  0  0  0  0
 16 59  1  0  0  0  0
 17 60  1  0  0  0  0
 18 61  1  0  0  0  0
 19 62  1  0  0  0  0
 21 63  1  0  0  0  0
 22 64  1  0  0  0  0
 26 65  1  0  0  0  0
 27 66  1  0  0  0  0
 29 67  1  0  0  0  0
 29 68  1  0  0  0  0
 30 69  1  0  0  0  0
 30 70  1  0  0  0  0
 30 71  1  0  0  0  0
 31 72  1  0  0  0  0
 32 73  1  0  0  0  0
 34 74  1  0  0  0  0
 36 75  1  0  0  0  0
 41 76  1  0  0  0  0
 42 77  1  0  0  0  0
 44 78  1  0  0  0  0
 44 79  1  0  0  0  0
 45 80  1  0  0  0  0
 45 81  1  0  0  0  0
 45 82  1  0  0  0  0
 46 83  1  0  0  0  0
 47 84  1  0  0  0  0
M  END
