88

C      1.863229   -2.417636   -0.503366
O      0.985315   -2.740176   -1.506784
C      1.127703   -4.005556   -2.135290
C      2.891875   -3.259722   -0.053225
C      3.719117   -2.872140    1.002261
C      3.531371   -1.640011    1.617930
C      2.526144   -0.782478    1.162991
C      1.680203   -1.153810    0.100594
C      0.544953   -0.243126   -0.344058
C     -0.576096   -0.131142    0.744369
C     -1.635182   -1.211317    0.580822
C     -2.435852   -1.267924   -0.576529
C     -3.366563   -2.295071   -0.750312
C     -3.526136   -3.266968    0.230427
C     -2.744227   -3.227701    1.383880
C     -1.795168   -2.213034    1.566981
O     -0.975217   -2.122101    2.662296
C     -1.316989   -2.908567    3.801101
N     -1.012214    1.267579    0.632693
C     -1.952318    1.943911    1.385103
C     -3.115883    1.223947    1.934038
C     -4.342468    1.177759    1.238151
C     -4.567802    1.816068   -0.077144
C     -4.313134    3.180938   -0.285931
C     -4.511882    3.775638   -1.537393
C     -4.998682    3.023378   -2.602723
C     -5.291334    1.675047   -2.414036
C     -5.084652    1.082409   -1.164337
C     -5.404411    0.487807    1.858759
C     -5.262885   -0.101128    3.117465
C     -4.049047   -0.013028    3.795254
C     -2.975597    0.656319    3.212121
O     -1.869339    3.145760    1.628074
C      0.056815    2.077117    0.064211
C      0.938989    2.834391    1.105017
O      0.935250    2.287213    2.345911
O      1.713785    3.758383    0.881299
N      0.925665    1.147178   -0.633684
C      1.620948    1.610292   -1.731739
C      2.493376    0.682837   -2.477044
C      1.896764   -0.072676   -3.500962
C      2.667981   -0.952217   -4.259051
C      4.038400   -1.056610   -4.012754
C      4.635073   -0.276552   -3.011629
C      3.882588    0.613627   -2.221819
C      4.582509    1.421059   -1.195724
C      4.517346    2.822587   -1.190947
C      5.171915    3.576874   -0.216067
C      5.931537    2.950069    0.768125
C      6.039857    1.562106    0.769470
C      5.374259    0.809809   -0.206302
O      1.551344    2.771094   -2.136201
H      0.951951   -4.812313   -1.417008
H      2.107907   -4.108788   -2.614830
H      0.363342   -4.087191   -2.914103
H      3.071600   -4.237425   -0.494174
H      4.517501   -3.529911    1.344557
H      4.171711   -1.333471    2.446225
H      2.410683    0.187959    1.647864
H      0.113546   -0.601393   -1.287791
H     -0.139580   -0.182951    1.751415
H     -2.328572   -0.520562   -1.357053
H     -3.974820   -2.334714   -1.652404
H     -4.256685   -4.062529    0.095155
H     -2.881323   -4.016821    2.118382
H     -0.706416   -2.551820    4.635977
H     -2.365732   -2.778635    4.081922
H     -1.072320   -3.966902    3.634517
H     -3.948489    3.807710    0.526936
H     -4.284749    4.833176   -1.673826
H     -5.146366    3.488947   -3.576097
H     -5.673213    1.083722   -3.239504
H     -5.329238    0.028753   -1.049075
H     -6.370269    0.425315    1.365375
H     -6.104343   -0.621046    3.570329
H     -3.937283   -0.462152    4.780731
H     -2.026446    0.732093    3.744110
H     -0.385039    2.820021   -0.610067
H      1.534898    2.894174    2.831296
H      0.830646    0.027220   -3.699980
H      2.206945   -1.547077   -5.040653
H      4.651299   -1.722020   -4.614573
H      5.712338   -0.346861   -2.859391
H      3.943666    3.349199   -1.951188
H      5.079007    4.660726   -0.233420
H      6.437127    3.540513    1.526620
H      6.638793    1.068106    1.527349
H      5.466690   -0.273551   -0.187913
