
  xtb     03172200073D
 xtb: 6.3.3 (4ae9cef)
 56 60  0     0  0            999 V2000
   -3.1102   -1.0388   -0.8952 C   0  0  0  0  0  0  0  0  0  0  0  0
   -3.9394   -1.0775   -2.0025 C   0  0  0  0  0  0  0  0  0  0  0  0
   -3.4958   -0.5869   -3.2184 C   0  0  0  0  0  0  0  0  0  0  0  0
   -2.2143   -0.0737   -3.3274 C   0  0  0  0  0  0  0  0  0  0  0  0
   -1.3845   -0.0344   -2.2219 C   0  0  0  0  0  0  0  0  0  0  0  0
   -1.8316   -0.5054   -0.9931 C   0  0  0  0  0  0  0  0  0  0  0  0
   -0.9523   -0.4108    0.2311 C   0  0  0  0  0  0  0  0  0  0  0  0
    0.2878   -1.3179    0.1432 C   0  0  0  0  0  0  0  0  0  0  0  0
    0.7031   -1.9385    1.4592 C   0  0  0  0  0  0  0  0  0  0  0  0
    1.3833   -3.1504    1.4421 C   0  0  0  0  0  0  0  0  0  0  0  0
    1.8376   -3.7156    2.6200 C   0  0  0  0  0  0  0  0  0  0  0  0
    1.6162   -3.0782    3.8287 C   0  0  0  0  0  0  0  0  0  0  0  0
    0.9384   -1.8723    3.8531 C   0  0  0  0  0  0  0  0  0  0  0  0
    0.4852   -1.3026    2.6756 C   0  0  0  0  0  0  0  0  0  0  0  0
    1.3275   -0.4044   -0.3318 N   0  0  0  0  0  0  0  0  0  0  0  0
    2.4494   -0.8894   -0.9251 C   0  0  0  0  0  0  0  0  0  0  0  0
    3.5431    0.0453   -1.2353 C   0  0  0  0  0  0  0  0  0  0  0  0
    4.8051   -0.3113   -1.6574 C   0  0  0  0  0  0  0  0  0  0  0  0
    5.5291    0.8811   -1.8007 C   0  0  0  0  0  0  0  0  0  0  0  0
    4.6562    1.8921   -1.4601 C   0  0  0  0  0  0  0  0  0  0  0  0
    4.8695    3.2793   -1.4336 C   0  0  0  0  0  0  0  0  0  0  0  0
    5.0765    4.4069   -1.4195 N   0  0  0  0  0  0  0  0  0  0  0  0
    3.4530    1.3824   -1.1212 O   0  0  0  0  0  0  0  0  0  0  0  0
    2.5512   -2.0669   -1.2159 O   0  0  0  0  0  0  0  0  0  0  0  0
    1.0610    0.9051    0.1899 C   0  0  0  0  0  0  0  0  0  0  0  0
    1.8473    1.1617    1.4926 C   0  0  0  0  0  0  0  0  0  0  0  0
    1.1741    1.9188    2.3450 O   0  0  0  0  0  0  0  0  0  0  0  0
    2.9553    0.7438    1.6782 O   0  0  0  0  0  0  0  0  0  0  0  0
   -0.3739    0.9248    0.3678 N   0  0  0  0  0  0  0  0  0  0  0  0
   -1.0472    2.0883    0.1704 C   0  0  0  0  0  0  0  0  0  0  0  0
   -2.5317    1.9402    0.2425 C   0  0  0  0  0  0  0  0  0  0  0  0
   -3.3488    1.5687    1.2808 C   0  0  0  0  0  0  0  0  0  0  0  0
   -4.6632    1.6245    0.7834 C   0  0  0  0  0  0  0  0  0  0  0  0
   -4.5500    2.0261   -0.5290 C   0  0  0  0  0  0  0  0  0  0  0  0
   -5.5525    2.1896   -1.4969 C   0  0  0  0  0  0  0  0  0  0  0  0
   -6.3979    2.2997   -2.2638 N   0  0  0  0  0  0  0  0  0  0  0  0
   -3.2541    2.2314   -0.8443 O   0  0  0  0  0  0  0  0  0  0  0  0
   -0.4915    3.1459   -0.0176 O   0  0  0  0  0  0  0  0  0  0  0  0
   -3.4614   -1.4131    0.0563 H   0  0  0  0  0  0  0  0  0  0  0  0
   -4.9373   -1.4793   -1.9119 H   0  0  0  0  0  0  0  0  0  0  0  0
   -4.1490   -0.6008   -4.0771 H   0  0  0  0  0  0  0  0  0  0  0  0
   -1.8616    0.3049   -4.2746 H   0  0  0  0  0  0  0  0  0  0  0  0
   -0.3891    0.3752   -2.3126 H   0  0  0  0  0  0  0  0  0  0  0  0
   -1.5446   -0.6639    1.1164 H   0  0  0  0  0  0  0  0  0  0  0  0
    0.1635   -2.1039   -0.6079 H   0  0  0  0  0  0  0  0  0  0  0  0
    1.5713   -3.6374    0.4979 H   0  0  0  0  0  0  0  0  0  0  0  0
    2.3680   -4.6554    2.5927 H   0  0  0  0  0  0  0  0  0  0  0  0
    1.9719   -3.5173    4.7487 H   0  0  0  0  0  0  0  0  0  0  0  0
    0.7619   -1.3691    4.7926 H   0  0  0  0  0  0  0  0  0  0  0  0
   -0.0418   -0.3605    2.7196 H   0  0  0  0  0  0  0  0  0  0  0  0
    5.1438   -1.3116   -1.8301 H   0  0  0  0  0  0  0  0  0  0  0  0
    6.5481    0.9989   -2.1080 H   0  0  0  0  0  0  0  0  0  0  0  0
    1.3482    1.7148   -0.4998 H   0  0  0  0  0  0  0  0  0  0  0  0
    1.7125    2.1310    3.1257 H   0  0  0  0  0  0  0  0  0  0  0  0
   -3.0449    1.3051    2.2731 H   0  0  0  0  0  0  0  0  0  0  0  0
   -5.5706    1.4017    1.3065 H   0  0  0  0  0  0  0  0  0  0  0  0
  1  2  4  0  0  0  0
  2  3  4  0  0  0  0
  3  4  4  0  0  0  0
  4  5  4  0  0  0  0
  1  6  4  0  0  0  0
  5  6  4  0  0  0  0
  6  7  1  0  0  0  0
  7  8  1  0  0  0  0
  8  9  1  0  0  0  0
  9 10  4  0  0  0  0
 10 11  4  0  0  0  0
 11 12  4  0  0  0  0
 12 13  4  0  0  0  0
  9 14  4  0  0  0  0
 13 14  4  0  0  0  0
  8 15  1  0  0  0  0
 15 16  4  0  0  0  0
 16 17  1  0  0  0  0
 17 18  4  0  0  0  0
 18 19  4  0  0  0  0
 19 20  4  0  0  0  0
 20 21  1  0  0  0  0
 21 22  3  0  0  0  0
 17 23  1  0  0  0  0
 20 23  1  0  0  0  0
 16 24  2  0  0  0  0
 15 25  1  0  0  0  0
 25 26  1  0  0  0  0
 26 27  1  0  0  0  0
 26 28  2  0  0  0  0
  7 29  1  0  0  0  0
 25 29  1  0  0  0  0
 29 30  4  0  0  0  0
 30 31  1  0  0  0  0
 31 32  2  0  0  0  0
 32 33  4  0  0  0  0
 33 34  4  0  0  0  0
 34 35  1  0  0  0  0
 35 36  3  0  0  0  0
 31 37  1  0  0  0  0
 34 37  1  0  0  0  0
 30 38  2  0  0  0  0
  1 39  1  0  0  0  0
  2 40  1  0  0  0  0
  3 41  1  0  0  0  0
  4 42  1  0  0  0  0
  5 43  1  0  0  0  0
  7 44  1  0  0  0  0
  8 45  1  0  0  0  0
 10 46  1  0  0  0  0
 11 47  1  0  0  0  0
 12 48  1  0  0  0  0
 13 49  1  0  0  0  0
 14 50  1  0  0  0  0
 18 51  1  0  0  0  0
 19 52  1  0  0  0  0
 25 53  1  0  0  0  0
 27 54  1  0  0  0  0
 32 55  1  0  0  0  0
 33 56  1  0  0  0  0
M  END
