
  xtb     03172200003D
 xtb: 6.3.3 (4ae9cef)
 66 72  0     0  0            999 V2000
   -2.6136    1.7661   -1.3928 C   0  0  0  0  0  0  0  0  0  0  0  0
   -3.7385    2.4506   -1.0367 C   0  0  0  0  0  0  0  0  0  0  0  0
   -3.8587    3.0271    0.2463 C   0  0  0  0  0  0  0  0  0  0  0  0
   -5.0086    3.7338    0.6534 C   0  0  0  0  0  0  0  0  0  0  0  0
   -5.0885    4.2685    1.9093 C   0  0  0  0  0  0  0  0  0  0  0  0
   -4.0263    4.1183    2.8150 C   0  0  0  0  0  0  0  0  0  0  0  0
   -2.8955    3.4428    2.4492 C   0  0  0  0  0  0  0  0  0  0  0  0
   -2.7814    2.8859    1.1588 C   0  0  0  0  0  0  0  0  0  0  0  0
   -1.6273    2.1792    0.7591 C   0  0  0  0  0  0  0  0  0  0  0  0
   -1.5373    1.6247   -0.4909 C   0  0  0  0  0  0  0  0  0  0  0  0
   -0.3780    0.7690   -0.9396 C   0  0  0  0  0  0  0  0  0  0  0  0
    0.8629    0.7951   -0.0351 C   0  0  0  0  0  0  0  0  0  0  0  0
    2.0845    0.3571   -0.8088 C   0  0  0  0  0  0  0  0  0  0  0  0
    2.8272    1.2923   -1.4815 C   0  0  0  0  0  0  0  0  0  0  0  0
    3.9355    0.9183   -2.2656 C   0  0  0  0  0  0  0  0  0  0  0  0
    4.7166    1.8663   -2.9598 C   0  0  0  0  0  0  0  0  0  0  0  0
    5.7857    1.4701   -3.7127 C   0  0  0  0  0  0  0  0  0  0  0  0
    6.1216    0.1100   -3.8102 C   0  0  0  0  0  0  0  0  0  0  0  0
    5.3845   -0.8323   -3.1501 C   0  0  0  0  0  0  0  0  0  0  0  0
    4.2781   -0.4556   -2.3611 C   0  0  0  0  0  0  0  0  0  0  0  0
    3.5032   -1.3972   -1.6556 C   0  0  0  0  0  0  0  0  0  0  0  0
    2.4367   -1.0025   -0.8993 C   0  0  0  0  0  0  0  0  0  0  0  0
    0.5056   -0.1673    1.0038 N   0  0  0  0  0  0  0  0  0  0  0  0
    0.9858   -0.0118    2.2656 C   0  0  0  0  0  0  0  0  0  0  0  0
    0.6663   -1.0620    3.2522 C   0  0  0  0  0  0  0  0  0  0  0  0
    0.4426   -0.8541    4.5854 C   0  0  0  0  0  0  0  0  0  0  0  0
    0.2856    0.8457    5.3555 Br  0  0  0  0  0  0  0  0  0  0  0  0
    0.2791   -2.0429    5.3338 C   0  0  0  0  0  0  0  0  0  0  0  0
    0.4070   -3.1482    4.5617 C   0  0  0  0  0  0  0  0  0  0  0  0
    0.7061   -2.7612    2.9128 S   0  0  0  0  0  0  0  0  0  0  0  0
    1.6875    0.9323    2.5663 O   0  0  0  0  0  0  0  0  0  0  0  0
   -0.6034   -0.9908    0.5625 C   0  0  0  0  0  0  0  0  0  0  0  0
   -1.8882   -0.6912    1.3686 C   0  0  0  0  0  0  0  0  0  0  0  0
   -2.9712   -0.9139    0.6356 O   0  0  0  0  0  0  0  0  0  0  0  0
   -1.9054   -0.3577    2.5186 O   0  0  0  0  0  0  0  0  0  0  0  0
   -0.7718   -0.6350   -0.8166 N   0  0  0  0  0  0  0  0  0  0  0  0
   -0.7665   -1.4589   -1.8969 C   0  0  0  0  0  0  0  0  0  0  0  0
   -0.9751   -2.9002   -1.6381 C   0  0  0  0  0  0  0  0  0  0  0  0
   -0.3213   -3.9194   -2.2792 C   0  0  0  0  0  0  0  0  0  0  0  0
    1.1181   -3.6540   -3.4616 Br  0  0  0  0  0  0  0  0  0  0  0  0
   -0.7859   -5.2077   -1.9275 C   0  0  0  0  0  0  0  0  0  0  0  0
   -1.8096   -5.1490   -1.0408 C   0  0  0  0  0  0  0  0  0  0  0  0
   -2.2149   -3.5360   -0.6057 S   0  0  0  0  0  0  0  0  0  0  0  0
   -0.6285   -1.0408   -3.0268 O   0  0  0  0  0  0  0  0  0  0  0  0
   -2.5282    1.3174   -2.3714 H   0  0  0  0  0  0  0  0  0  0  0  0
   -4.5562    2.5599   -1.7346 H   0  0  0  0  0  0  0  0  0  0  0  0
   -5.8246    3.8449   -0.0466 H   0  0  0  0  0  0  0  0  0  0  0  0
   -5.9719    4.8100    2.2147 H   0  0  0  0  0  0  0  0  0  0  0  0
   -4.1105    4.5417    3.8047 H   0  0  0  0  0  0  0  0  0  0  0  0
   -2.0763    3.3196    3.1423 H   0  0  0  0  0  0  0  0  0  0  0  0
   -0.8281    2.0958    1.4803 H   0  0  0  0  0  0  0  0  0  0  0  0
   -0.1322    0.9639   -1.9870 H   0  0  0  0  0  0  0  0  0  0  0  0
    1.0429    1.7755    0.4126 H   0  0  0  0  0  0  0  0  0  0  0  0
    2.5657    2.3394   -1.4160 H   0  0  0  0  0  0  0  0  0  0  0  0
    4.4534    2.9116   -2.8832 H   0  0  0  0  0  0  0  0  0  0  0  0
    6.3812    2.2008   -4.2403 H   0  0  0  0  0  0  0  0  0  0  0  0
    6.9695   -0.1833   -4.4117 H   0  0  0  0  0  0  0  0  0  0  0  0
    5.6363   -1.8806   -3.2221 H   0  0  0  0  0  0  0  0  0  0  0  0
    3.7643   -2.4430   -1.7256 H   0  0  0  0  0  0  0  0  0  0  0  0
    1.8678   -1.7421   -0.3537 H   0  0  0  0  0  0  0  0  0  0  0  0
    0.0840   -2.0514    6.3903 H   0  0  0  0  0  0  0  0  0  0  0  0
    0.3476   -4.1778    4.8527 H   0  0  0  0  0  0  0  0  0  0  0  0
   -0.3960   -2.0642    0.6775 H   0  0  0  0  0  0  0  0  0  0  0  0
   -3.7804   -0.7272    1.1399 H   0  0  0  0  0  0  0  0  0  0  0  0
   -0.3714   -6.1129   -2.3311 H   0  0  0  0  0  0  0  0  0  0  0  0
   -2.3619   -5.9611   -0.6121 H   0  0  0  0  0  0  0  0  0  0  0  0
  1  2  2  0  0  0  0
  2  3  4  0  0  0  0
  3  4  4  0  0  0  0
  4  5  2  0  0  0  0
  5  6  4  0  0  0  0
  6  7  2  0  0  0  0
  3  8  4  0  0  0  0
  7  8  4  0  0  0  0
  8  9  4  0  0  0  0
  1 10  4  0  0  0  0
  9 10  2  0  0  0  0
 10 11  1  0  0  0  0
 11 12  1  0  0  0  0
 12 13  1  0  0  0  0
 13 14  2  0  0  0  0
 14 15  4  0  0  0  0
 15 16  4  0  0  0  0
 16 17  2  0  0  0  0
 17 18  4  0  0  0  0
 18 19  2  0  0  0  0
 15 20  4  0  0  0  0
 19 20  4  0  0  0  0
 20 21  4  0  0  0  0
 13 22  4  0  0  0  0
 21 22  2  0  0  0  0
 12 23  1  0  0  0  0
 23 24  1  0  0  0  0
 24 25  1  0  0  0  0
 25 26  2  0  0  0  0
 26 27  1  0  0  0  0
 26 28  4  0  0  0  0
 28 29  2  0  0  0  0
 25 30  1  0  0  0  0
 29 30  1  0  0  0  0
 24 31  2  0  0  0  0
 23 32  1  0  0  0  0
 32 33  1  0  0  0  0
 33 34  1  0  0  0  0
 33 35  2  0  0  0  0
 11 36  1  0  0  0  0
 32 36  1  0  0  0  0
 36 37  1  0  0  0  0
 37 38  1  0  0  0  0
 38 39  2  0  0  0  0
 39 40  1  0  0  0  0
 39 41  4  0  0  0  0
 41 42  2  0  0  0  0
 38 43  1  0  0  0  0
 42 43  1  0  0  0  0
 37 44  2  0  0  0  0
  1 45  1  0  0  0  0
  2 46  1  0  0  0  0
  4 47  1  0  0  0  0
  5 48  1  0  0  0  0
  6 49  1  0  0  0  0
  7 50  1  0  0  0  0
  9 51  1  0  0  0  0
 11 52  1  0  0  0  0
 12 53  1  0  0  0  0
 14 54  1  0  0  0  0
 16 55  1  0  0  0  0
 17 56  1  0  0  0  0
 18 57  1  0  0  0  0
 19 58  1  0  0  0  0
 21 59  1  0  0  0  0
 22 60  1  0  0  0  0
 28 61  1  0  0  0  0
 29 62  1  0  0  0  0
 32 63  1  0  0  0  0
 34 64  1  0  0  0  0
 41 65  1  0  0  0  0
 42 66  1  0  0  0  0
M  END
