54

C     -0.624685   -1.259140   -2.379234
C     -1.029476   -2.093343   -3.422855
C     -2.107131   -2.957954   -3.249869
C     -2.780708   -2.992887   -2.031991
C     -2.379059   -2.159675   -0.986700
C     -1.300253   -1.273547   -1.148088
C     -0.886919   -0.386009    0.021101
C      0.396392   -0.926196    0.709822
C      0.361824   -0.893077    2.237484
C      1.033897   -1.900175    2.952609
C      1.040129   -1.914094    4.348806
C      0.377304   -0.917781    5.057969
C     -0.286871    0.093891    4.370798
C     -0.292592    0.108514    2.973121
N      1.460076   -0.071353    0.178832
C      2.761399   -0.538651    0.068076
C      3.800008    0.279025   -0.538571
C      5.174568    0.109505   -0.514712
C      5.735201    1.164062   -1.273465
C      4.676325    1.911461   -1.734983
Cl     4.758401    3.316391   -2.719083
O      3.504325    1.370086   -1.305194
O      3.036480   -1.668064    0.481318
C      0.910938    1.198762   -0.279626
C      1.273616    2.324917    0.738931
O      0.212274    2.987894    1.257248
O      2.395801    2.628882    1.119919
N     -0.525878    0.973950   -0.392116
C     -1.293077    1.887344   -1.097741
C     -2.726872    1.684352   -1.159231
C     -3.676603    1.320350   -0.221182
C     -4.924930    1.299546   -0.890456
C     -4.675425    1.671987   -2.191916
Cl    -5.829526    1.823410   -3.455057
O     -3.349484    1.923469   -2.355738
O     -0.745124    2.838549   -1.656925
H      0.220643   -0.596292   -2.548557
H     -0.503291   -2.066020   -4.374098
H     -2.421184   -3.604626   -4.065191
H     -3.620360   -3.670126   -1.897000
H     -2.921488   -2.208843   -0.044546
H     -1.727752   -0.328552    0.717617
H      0.578485   -1.965971    0.405990
H      1.574078   -2.683738    2.421527
H      1.571083   -2.700335    4.879588
H      0.386080   -0.925605    6.144677
H     -0.797168    0.878169    4.924481
H     -0.816580    0.922666    2.480061
H      5.696568   -0.684875    0.002643
H      6.781380    1.356612   -1.463926
H      1.285051    1.473724   -1.267021
H      0.630494    3.669942    1.824514
H     -3.497366    1.112974    0.824014
H     -5.893020    1.056498   -0.476076
