66

C      3.280915   -2.963939    2.576253
C      2.987545   -2.025717    3.561483
C      2.223381   -0.915891    3.240254
C      1.757878   -0.745503    1.932965
C      2.038782   -1.673172    0.898837
C      2.817887   -2.805650    1.259241
C      3.134347   -3.780617    0.304807
C      2.695932   -3.663545   -1.007422
C      1.936945   -2.562909   -1.384477
C      1.598950   -1.552269   -0.458798
C      0.757555   -0.398670   -1.008317
C     -0.693076   -0.386334   -0.428435
C     -1.770047   -0.890158   -1.395012
C     -1.786929   -0.404525   -2.721128
C     -2.733247   -0.834775   -3.644175
C     -3.686740   -1.768780   -3.269664
C     -3.712918   -2.284411   -1.969015
C     -2.759211   -1.854959   -1.004505
C     -2.870622   -2.434474    0.286025
C     -3.853556   -3.378777    0.603212
C     -4.765683   -3.779436   -0.359011
C     -4.694602   -3.233686   -1.637035
N     -0.920275    1.019116   -0.002596
C     -1.666527    1.254364    1.154435
C     -1.658993    2.595643    1.743856
C     -1.545014    2.762158    3.115631
S     -1.539675    4.400239    3.598061
C     -1.751039    4.926865    1.990417
C     -1.820903    3.871409    1.104987
O     -2.282323    0.352120    1.713232
C      0.210731    1.856445   -0.409408
C     -0.203712    2.706145   -1.655368
O     -1.520517    2.619537   -1.977375
O      0.561085    3.409067   -2.300381
N      1.285045    0.928553   -0.708523
C      2.529780    1.326456   -1.172458
C      3.099108    2.548108   -0.601081
C      3.848945    3.431337   -1.359890
S      4.397228    4.780930   -0.467745
C      3.697171    4.180769    0.970528
C      3.057632    2.978649    0.770276
O      3.142268    0.673500   -2.012907
H      3.883170   -3.829380    2.844888
H      3.353789   -2.164040    4.575639
H      1.985790   -0.180783    4.004416
H      1.162759    0.138528    1.745346
H      3.733279   -4.647307    0.577489
H      2.953984   -4.426056   -1.737447
H      1.619596   -2.490859   -2.424045
H      0.754843   -0.465474   -2.102822
H     -0.695933   -0.997756    0.475072
H     -1.052755    0.316672   -3.075666
H     -2.722030   -0.448378   -4.661699
H     -4.416156   -2.095844   -4.008515
H     -2.200882   -2.158399    1.095441
H     -3.901040   -3.789597    1.609265
H     -5.533149   -4.510836   -0.116706
H     -5.421493   -3.558385   -2.379623
H     -1.461553    1.984462    3.863510
H     -1.839198    5.983425    1.769883
H     -2.001563    4.036860    0.051359
H      0.499016    2.542450    0.386785
H     -1.998213    1.966129   -1.420380
H      4.078978    3.353792   -2.415121
H      3.804730    4.729913    1.895419
H      2.590533    2.427652    1.577734
