66

C     -1.926203   -2.320525   -0.565999
C     -2.184823   -1.429580   -1.760956
F     -1.196686   -0.525275   -2.009010
F     -2.311338   -2.128858   -2.928001
F     -3.333359   -0.709853   -1.648008
C     -2.409243   -3.646801   -0.649645
C     -2.251335   -4.551718    0.397694
C     -1.613241   -4.149422    1.560465
C     -1.137638   -2.843847    1.673338
C     -1.283549   -1.903850    0.625962
C     -0.700387   -0.519073    0.888446
C      0.661719   -0.287003    0.154757
C      1.860849   -0.687644    1.013622
C      2.669229   -1.817618    0.715250
C      2.419718   -2.726325   -0.474504
F      2.443094   -2.065397   -1.660786
F      3.329943   -3.732852   -0.597234
F      1.206411   -3.334604   -0.415517
C      3.753514   -2.129442    1.563229
C      4.040317   -1.357890    2.686652
C      3.246085   -0.261968    2.987992
C      2.168888    0.065618    2.164815
N      0.617126    1.140520   -0.214755
C      1.408687    1.826130   -1.114311
C      2.629336    1.195429   -1.631125
C      3.808488    1.248808   -0.883610
C      4.978470    0.696154   -1.404829
C      4.967763    0.115559   -2.674790
C      3.789400    0.098293   -3.424281
Br     3.787974   -0.678611   -5.147004
C      2.614055    0.643906   -2.913541
O      1.136132    2.952470   -1.521740
C     -0.668487    1.742311    0.125090
C     -0.504174    2.795600    1.274481
O      0.768894    3.105631    1.606970
O     -1.411386    3.354966    1.875661
N     -1.527554    0.620858    0.503137
C     -2.833254    0.759232    0.953997
C     -3.675226    1.883299    0.467776
C     -3.717281    2.243564   -0.882371
C     -4.548921    3.286494   -1.288875
Br    -4.599241    3.782648   -3.113204
C     -5.348647    3.962215   -0.367735
C     -5.327084    3.584925    0.974806
C     -4.498974    2.541359    1.390669
O     -3.339684   -0.033554    1.743757
H     -2.923657   -3.983035   -1.550252
H     -2.632293   -5.565405    0.305892
H     -1.492786   -4.846666    2.385359
H     -0.653378   -2.557730    2.606739
H     -0.571346   -0.396795    1.973405
H      0.690716   -0.828653   -0.793279
H      4.386623   -2.991043    1.350431
H      4.880182   -1.616454    3.327337
H      3.461426    0.341817    3.866288
H      1.567602    0.928360    2.439212
H      3.819014    1.723763    0.094188
H      5.898944    0.726432   -0.826587
H      5.884090   -0.310686   -3.076254
H      1.698267    0.643998   -3.497776
H     -1.074978    2.265657   -0.743568
H      0.670547    3.836767    2.252162
H     -3.129709    1.704475   -1.618843
H     -5.996626    4.774857   -0.686319
H     -5.954953    4.100507    1.697098
H     -4.486062    2.245557    2.438031
