72

C     -4.256195   -1.980567    3.339402
C     -4.097796   -0.913642    4.220004
C     -3.068814   -0.007438    4.017975
C     -2.200832   -0.167998    2.933548
C     -2.332408   -1.236977    2.011889
C     -3.391522   -2.153863    2.245181
C     -3.584877   -3.237068    1.380758
C     -2.754026   -3.428005    0.283738
C     -1.716496   -2.536185    0.033497
C     -1.477000   -1.437990    0.878977
C     -0.344928   -0.463559    0.569282
C      0.803249   -0.815454   -0.422584
C      1.858699   -1.758773    0.157854
C      2.530869   -1.372116    1.339032
C      3.452190   -2.208452    1.957186
C      3.732466   -3.450156    1.403962
C      3.121833   -3.861421    0.212189
C      2.187500   -3.014162   -0.444201
C      1.664745   -3.483106   -1.675367
C      2.017787   -4.725052   -2.212382
C      2.907385   -5.544126   -1.537239
C      3.457660   -5.112488   -0.333427
N      1.366335    0.509600   -0.732811
C      2.189885    0.657973   -1.839045
C      2.847364    1.969911   -2.021479
C      2.693059    2.646438   -3.234709
C      3.308711    3.886721   -3.415375
C      4.083869    4.431769   -2.389175
I      5.004836    6.275275   -2.660221
C      4.259649    3.743204   -1.186312
C      3.642557    2.503674   -1.002429
O      2.403807   -0.217507   -2.667652
C      0.404329    1.555402   -0.373936
C      0.934737    2.466216    0.753695
O      0.775159    3.781357    0.486009
O      1.416443    2.115663    1.821878
N     -0.792574    0.869338    0.115968
C     -1.819804    0.912409   -0.832610
C     -2.787224    2.041899   -0.698741
C     -2.819685    2.863642    0.435893
C     -3.739531    3.914307    0.516937
C     -4.630214    4.137937   -0.532445
I     -5.994271    5.702578   -0.415763
C     -4.616397    3.316051   -1.658531
C     -3.695450    2.268934   -1.740842
O     -1.918469    0.109725   -1.753823
H     -5.069735   -2.681893    3.513267
H     -4.775532   -0.796895    5.061115
H     -2.934237    0.824953    4.703723
H     -1.410136    0.569057    2.825064
H     -4.394494   -3.943999    1.549831
H     -2.921133   -4.267466   -0.385833
H     -1.116251   -2.708770   -0.854299
H      0.129442   -0.272618    1.539723
H      0.383106   -1.186241   -1.358776
H      2.344360   -0.401367    1.793439
H      3.954252   -1.889851    2.865241
H      4.454386   -4.091569    1.904651
H      0.993432   -2.873809   -2.273486
H      1.604750   -5.034760   -3.169674
H      3.187923   -6.507610   -1.952919
H      4.170144   -5.759516    0.173820
H      2.104581    2.205355   -4.036845
H      3.181111    4.411082   -4.359939
H      4.882712    4.151390   -0.393226
H      3.804844    1.948011   -0.080130
H      0.180096    2.170184   -1.254800
H      1.123618    4.239788    1.280847
H     -2.144185    2.696100    1.270379
H     -3.744053    4.553835    1.397272
H     -5.317042    3.471503   -2.475541
H     -3.698568    1.621186   -2.616663
