96

C     -3.230740   -3.065790   -0.207371
C     -4.085538   -3.751610   -1.076299
C     -3.977682   -3.590518   -2.464891
C     -4.836145   -4.260568   -3.353217
C     -4.719213   -4.069514   -4.730548
C     -3.754756   -3.201171   -5.235701
C     -2.888900   -2.535203   -4.365585
C     -2.988268   -2.720875   -2.976942
C     -2.131068   -2.046689   -2.086838
C     -2.236470   -2.207211   -0.696721
C     -1.360113   -1.461504    0.298536
C      0.140663   -1.327475   -0.075441
C      1.018442   -1.726307    1.108560
C      1.599893   -3.007869    1.127462
C      2.371520   -3.449461    2.216731
C      2.934482   -4.734264    2.244575
C      3.688348   -5.165139    3.339014
C      3.895470   -4.312912    4.416271
C      3.346392   -3.026618    4.403564
C      2.574408   -2.587644    3.314414
C      1.993299   -1.310080    3.296351
C      1.221144   -0.885376    2.211817
N      0.303977    0.082283   -0.473132
C      1.465811    0.749868   -0.797813
C      2.753680    0.049032   -1.002393
C      2.865162   -1.078209   -1.811389
C      4.120219   -1.646315   -2.022167
C      5.269030   -1.063255   -1.468230
C      5.193928    0.105671   -0.694327
C      6.437116    0.825150   -0.144179
C      6.381306    0.857731    1.399026
C      7.765136    0.155223   -0.550935
C      6.475900    2.271980   -0.684462
C      3.912066    0.639587   -0.462160
O      1.445472    1.977698   -0.940392
C     -0.924130    0.846317   -0.223678
C     -1.539392    1.394218   -1.561605
O     -0.698051    2.174346   -2.293037
O     -2.684168    1.206177   -1.954108
N     -1.807650   -0.081621    0.463153
C     -2.725389    0.240315    1.444810
C     -3.017495    1.665177    1.701009
C     -3.779288    2.419071    0.803837
C     -4.035096    3.784517    1.044098
C     -4.869950    4.604715    0.043007
C     -4.300701    4.458639   -1.389645
C     -6.327616    4.099035    0.075191
C     -4.887943    6.117783    0.362145
C     -3.532367    4.336712    2.237803
C     -2.805278    3.568965    3.152939
C     -2.549520    2.228923    2.887736
O     -3.229379   -0.585833    2.198091
H     -3.362446   -3.189404    0.867777
H     -4.842933   -4.405104   -0.653381
H     -5.609307   -4.928789   -2.972629
H     -5.393183   -4.591014   -5.402362
H     -3.669587   -3.043574   -6.306815
H     -2.146216   -1.855040   -4.781206
H     -1.394278   -1.364513   -2.504241
H     -1.451138   -1.982216    1.259989
H      0.393466   -1.956376   -0.932996
H      1.440145   -3.683516    0.289332
H      2.785459   -5.412051    1.408532
H      4.103692   -6.169622    3.347019
H      4.483800   -4.645960    5.269112
H      3.512634   -2.373333    5.257175
H      2.123973   -0.637759    4.142211
H      0.769530    0.100120    2.250011
H      1.999769   -1.507982   -2.305811
H      4.221328   -2.532695   -2.646695
H      6.221519   -1.541452   -1.683876
H      5.493716    1.378617    1.774440
H      7.259088    1.375806    1.801517
H      6.372492   -0.160983    1.811696
H      7.882053    0.125081   -1.640409
H      8.625070    0.710738   -0.152108
H      7.836356   -0.871511   -0.169930
H      6.418670    2.278318   -1.781611
H      5.644016    2.883253   -0.307396
H      7.403387    2.787118   -0.391328
H      3.798861    1.547907    0.130650
H     -0.704352    1.705702    0.415845
H      0.174371    2.327891   -1.850748
H     -4.192021    1.925831   -0.073096
H     -4.389621    3.433227   -1.764121
H     -4.840463    5.103531   -2.095678
H     -3.237937    4.739512   -1.426126
H     -6.964229    4.669936   -0.608436
H     -6.409177    3.044258   -0.210664
H     -6.748872    4.197146    1.081195
H     -5.365463    6.323860    1.327890
H     -3.873425    6.533763    0.387962
H     -5.448563    6.677528   -0.396958
H     -3.714678    5.374715    2.504147
H     -2.456638    4.019399    4.079955
H     -1.999426    1.629536    3.605231
