66

C     -3.381665   -3.548268   -0.694392
C     -2.921639   -4.339091    0.354519
C     -1.882358   -3.881879    1.148942
C     -1.306490   -2.632522    0.895973
C     -1.746043   -1.797306   -0.162888
C     -2.809924   -2.293450   -0.963651
C     -3.299998   -1.538319   -2.035888
C     -2.758651   -0.296822   -2.340827
C     -1.717837    0.207947   -1.572775
C     -1.195864   -0.512868   -0.476576
C     -0.055206    0.116587    0.329154
C      1.231128    0.335063   -0.579833
C      2.478458   -0.397186   -0.059262
C      3.519516    0.318554    0.567126
C      4.617689   -0.332416    1.119453
C      4.709467   -1.715805    1.050367
C      3.725195   -2.466645    0.398918
C      2.606056   -1.818358   -0.189037
C      1.693873   -2.642993   -0.890065
C      1.843696   -4.031071   -0.961367
C      2.924736   -4.643076   -0.347681
C      3.864212   -3.862692    0.320089
N      1.366205    1.807149   -0.627454
C      1.543300    2.398331   -1.874256
C      1.143082    3.767581   -2.078650
C     -0.106895    4.329299   -2.022087
F     -1.213545    3.634417   -1.731226
C     -0.130000    5.711417   -2.318302
C      1.127762    6.171366   -2.644811
S      2.301299    4.920036   -2.603278
O      2.030430    1.741145   -2.795745
C      0.727690    2.367187    0.556946
C      0.902133    3.816133    1.120516
O      0.239356    4.029531    2.280474
O      1.671052    4.672624    0.709611
N     -0.364989    1.471602    0.862620
C     -1.627252    1.968784    1.146686
C     -2.555990    1.080895    1.817274
C     -2.325656    0.160400    2.809791
F     -1.115685   -0.072756    3.339724
C     -3.482266   -0.536673    3.230056
C     -4.596715   -0.109161    2.543608
S     -4.226100    1.139855    1.430345
O     -1.913041    3.132046    0.862864
H     -4.196501   -3.924641   -1.309429
H     -3.372785   -5.309620    0.544500
H     -1.511343   -4.491127    1.969059
H     -0.492694   -2.338086    1.552517
H     -4.116269   -1.914103   -2.649700
H     -3.148970    0.278589   -3.176036
H     -1.321176    1.185124   -1.836796
H      0.212426   -0.478096    1.203990
H      1.058955   -0.025517   -1.601112
H      3.505512    1.403677    0.629661
H      5.405846    0.241393    1.600232
H      5.576379   -2.203871    1.490540
H      0.847996   -2.222162   -1.424492
H      1.112770   -4.625771   -1.504160
H      3.048449   -5.720933   -0.404570
H      4.719519   -4.357081    0.776388
H     -1.017453    6.330566   -2.307109
H      1.419330    7.175921   -2.916388
H      1.433521    1.968635    1.310525
H      0.416917    4.968057    2.495564
H     -3.498428   -1.309406    3.987088
H     -5.614527   -0.460141    2.644719
