
  xtb     03172200153D
 xtb: 6.3.3 (4ae9cef)
 78 84  0     0  0            999 V2000
   -1.2652   -4.2295   -3.2953 C   0  0  0  0  0  0  0  0  0  0  0  0
   -0.6094   -5.0354   -2.4100 C   0  0  0  0  0  0  0  0  0  0  0  0
   -0.2151   -4.5231   -1.1663 C   0  0  0  0  0  0  0  0  0  0  0  0
   -0.4782   -3.2244   -0.8313 C   0  0  0  0  0  0  0  0  0  0  0  0
   -1.1409   -2.3544   -1.7256 C   0  0  0  0  0  0  0  0  0  0  0  0
   -1.5422   -2.8811   -2.9852 C   0  0  0  0  0  0  0  0  0  0  0  0
   -2.2000   -2.0507   -3.9151 C   0  0  0  0  0  0  0  0  0  0  0  0
   -2.4337   -0.7375   -3.6266 C   0  0  0  0  0  0  0  0  0  0  0  0
   -2.0212   -0.2076   -2.3987 C   0  0  0  0  0  0  0  0  0  0  0  0
   -1.4101   -0.9864   -1.4488 C   0  0  0  0  0  0  0  0  0  0  0  0
   -0.9337   -0.3571   -0.1664 C   0  0  0  0  0  0  0  0  0  0  0  0
    0.4731    0.2546   -0.3733 C   0  0  0  0  0  0  0  0  0  0  0  0
    1.5902   -0.7502   -0.2788 C   0  0  0  0  0  0  0  0  0  0  0  0
    2.1871   -1.1335   -1.4554 C   0  0  0  0  0  0  0  0  0  0  0  0
    3.2084   -2.0889   -1.4874 C   0  0  0  0  0  0  0  0  0  0  0  0
    3.6366   -2.6683   -0.3284 C   0  0  0  0  0  0  0  0  0  0  0  0
    3.0426   -2.3252    0.9021 C   0  0  0  0  0  0  0  0  0  0  0  0
    1.9979   -1.3602    0.9368 C   0  0  0  0  0  0  0  0  0  0  0  0
    1.4125   -1.0684    2.1864 C   0  0  0  0  0  0  0  0  0  0  0  0
    1.8339   -1.6808    3.3333 C   0  0  0  0  0  0  0  0  0  0  0  0
    2.8723   -2.6218    3.2961 C   0  0  0  0  0  0  0  0  0  0  0  0
    3.4614   -2.9341    2.1041 C   0  0  0  0  0  0  0  0  0  0  0  0
    0.4906    1.3804    0.5560 N   0  0  0  0  0  0  0  0  0  0  0  0
    1.3977    2.4039    0.4986 C   0  0  0  0  0  0  0  0  0  0  0  0
    2.7036    1.9948   -0.0719 C   0  0  0  0  0  0  0  0  0  0  0  0
    3.1091    2.0687   -1.3753 C   0  0  0  0  0  0  0  0  0  0  0  0
    2.4228    2.5939   -2.5858 C   0  0  0  0  0  0  0  0  0  0  0  0
    4.3566    1.5724   -1.4952 O   0  0  0  0  0  0  0  0  0  0  0  0
    4.7590    1.1929   -0.2659 C   0  0  0  0  0  0  0  0  0  0  0  0
    3.7923    1.4304    0.6627 C   0  0  0  0  0  0  0  0  0  0  0  0
    3.8496    1.2151    2.1341 C   0  0  0  0  0  0  0  0  0  0  0  0
    1.1390    3.5115    0.9139 O   0  0  0  0  0  0  0  0  0  0  0  0
   -0.8489    1.6518    1.0429 C   0  0  0  0  0  0  0  0  0  0  0  0
   -0.9323    1.3774    2.5592 C   0  0  0  0  0  0  0  0  0  0  0  0
   -1.9825    0.6201    2.8823 O   0  0  0  0  0  0  0  0  0  0  0  0
   -0.1587    1.8105    3.3647 O   0  0  0  0  0  0  0  0  0  0  0  0
   -1.7043    0.8087    0.2508 N   0  0  0  0  0  0  0  0  0  0  0  0
   -3.0677    0.7461    0.3922 C   0  0  0  0  0  0  0  0  0  0  0  0
   -3.7085    2.0067    0.8165 C   0  0  0  0  0  0  0  0  0  0  0  0
   -4.7065    2.0917    1.7555 C   0  0  0  0  0  0  0  0  0  0  0  0
   -5.3302    1.0444    2.6014 C   0  0  0  0  0  0  0  0  0  0  0  0
   -5.1102    3.3668    1.8853 O   0  0  0  0  0  0  0  0  0  0  0  0
   -4.4015    4.1063    1.0088 C   0  0  0  0  0  0  0  0  0  0  0  0
   -3.5175    3.3372    0.3162 C   0  0  0  0  0  0  0  0  0  0  0  0
   -2.6058    3.7959   -0.7718 C   0  0  0  0  0  0  0  0  0  0  0  0
   -3.6922   -0.2623    0.1382 O   0  0  0  0  0  0  0  0  0  0  0  0
   -1.5819   -4.6104   -4.2559 H   0  0  0  0  0  0  0  0  0  0  0  0
   -0.3956   -6.0648   -2.6567 H   0  0  0  0  0  0  0  0  0  0  0  0
    0.3005   -5.1639   -0.4662 H   0  0  0  0  0  0  0  0  0  0  0  0
   -0.1609   -2.8712    0.1366 H   0  0  0  0  0  0  0  0  0  0  0  0
   -2.5081   -2.4724   -4.8609 H   0  0  0  0  0  0  0  0  0  0  0  0
   -2.9321   -0.0963   -4.3383 H   0  0  0  0  0  0  0  0  0  0  0  0
   -2.2072    0.8367   -2.1969 H   0  0  0  0  0  0  0  0  0  0  0  0
   -0.9291   -1.0957    0.6431 H   0  0  0  0  0  0  0  0  0  0  0  0
    0.4953    0.6652   -1.3948 H   0  0  0  0  0  0  0  0  0  0  0  0
    1.8621   -0.6923   -2.3866 H   0  0  0  0  0  0  0  0  0  0  0  0
    3.6512   -2.3563   -2.4346 H   0  0  0  0  0  0  0  0  0  0  0  0
    4.4286   -3.4029   -0.3362 H   0  0  0  0  0  0  0  0  0  0  0  0
    0.6250   -0.3382    2.2381 H   0  0  0  0  0  0  0  0  0  0  0  0
    1.3719   -1.4345    4.2778 H   0  0  0  0  0  0  0  0  0  0  0  0
    3.1991   -3.0930    4.2111 H   0  0  0  0  0  0  0  0  0  0  0  0
    4.2615   -3.6593    2.0601 H   0  0  0  0  0  0  0  0  0  0  0  0
    1.5280    3.1354   -2.2918 H   0  0  0  0  0  0  0  0  0  0  0  0
    3.0857    3.2685   -3.1247 H   0  0  0  0  0  0  0  0  0  0  0  0
    2.1489    1.7846   -3.2635 H   0  0  0  0  0  0  0  0  0  0  0  0
    5.7412    0.7740   -0.1792 H   0  0  0  0  0  0  0  0  0  0  0  0
    2.8643    1.3439    2.5736 H   0  0  0  0  0  0  0  0  0  0  0  0
    4.5230    1.9401    2.5903 H   0  0  0  0  0  0  0  0  0  0  0  0
    4.2176    0.2172    2.3643 H   0  0  0  0  0  0  0  0  0  0  0  0
   -1.0610    2.7247    0.9280 H   0  0  0  0  0  0  0  0  0  0  0  0
   -2.0326    0.4925    3.8436 H   0  0  0  0  0  0  0  0  0  0  0  0
   -6.4123    1.0692    2.4853 H   0  0  0  0  0  0  0  0  0  0  0  0
   -5.1012    1.2109    3.6537 H   0  0  0  0  0  0  0  0  0  0  0  0
   -4.9589    0.0725    2.2925 H   0  0  0  0  0  0  0  0  0  0  0  0
   -4.6150    5.1555    0.9651 H   0  0  0  0  0  0  0  0  0  0  0  0
   -1.7689    4.3687   -0.3702 H   0  0  0  0  0  0  0  0  0  0  0  0
   -3.1459    4.4428   -1.4606 H   0  0  0  0  0  0  0  0  0  0  0  0
   -2.2126    2.9476   -1.3259 H   0  0  0  0  0  0  0  0  0  0  0  0
  1  2  2  0  0  0  0
  2  3  4  0  0  0  0
  3  4  2  0  0  0  0
  4  5  4  0  0  0  0
  1  6  4  0  0  0  0
  5  6  4  0  0  0  0
  6  7  4  0  0  0  0
  7  8  2  0  0  0  0
  8  9  4  0  0  0  0
  5 10  4  0  0  0  0
  9 10  2  0  0  0  0
 10 11  1  0  0  0  0
 11 12  1  0  0  0  0
 12 13  1  0  0  0  0
 13 14  2  0  0  0  0
 14 15  4  0  0  0  0
 15 16  2  0  0  0  0
 16 17  4  0  0  0  0
 13 18  4  0  0  0  0
 17 18  4  0  0  0  0
 18 19  4  0  0  0  0
 19 20  2  0  0  0  0
 20 21  4  0  0  0  0
 17 22  4  0  0  0  0
 21 22  2  0  0  0  0
 12 23  1  0  0  0  0
 23 24  1  0  0  0  0
 24 25  1  0  0  0  0
 25 26  2  0  0  0  0
 26 27  1  0  0  0  0
 26 28  1  0  0  0  0
 28 29  1  0  0  0  0
 25 30  4  0  0  0  0
 29 30  2  0  0  0  0
 30 31  1  0  0  0  0
 24 32  2  0  0  0  0
 23 33  1  0  0  0  0
 33 34  1  0  0  0  0
 34 35  1  0  0  0  0
 34 36  2  0  0  0  0
 11 37  1  0  0  0  0
 33 37  1  0  0  0  0
 37 38  1  0  0  0  0
 38 39  1  0  0  0  0
 39 40  2  0  0  0  0
 40 41  1  0  0  0  0
 40 42  1  0  0  0  0
 42 43  1  0  0  0  0
 39 44  4  0  0  0  0
 43 44  2  0  0  0  0
 44 45  1  0  0  0  0
 38 46  2  0  0  0  0
  1 47  1  0  0  0  0
  2 48  1  0  0  0  0
  3 49  1  0  0  0  0
  4 50  1  0  0  0  0
  7 51  1  0  0  0  0
  8 52  1  0  0  0  0
  9 53  1  0  0  0  0
 11 54  1  0  0  0  0
 12 55  1  0  0  0  0
 14 56  1  0  0  0  0
 15 57  1  0  0  0  0
 16 58  1  0  0  0  0
 19 59  1  0  0  0  0
 20 60  1  0  0  0  0
 21 61  1  0  0  0  0
 22 62  1  0  0  0  0
 27 63  1  0  0  0  0
 27 64  1  0  0  0  0
 27 65  1  0  0  0  0
 29 66  1  0  0  0  0
 31 67  1  0  0  0  0
 31 68  1  0  0  0  0
 31 69  1  0  0  0  0
 33 70  1  0  0  0  0
 35 71  1  0  0  0  0
 41 72  1  0  0  0  0
 41 73  1  0  0  0  0
 41 74  1  0  0  0  0
 43 75  1  0  0  0  0
 45 76  1  0  0  0  0
 45 77  1  0  0  0  0
 45 78  1  0  0  0  0
M  END
