68

C     -1.899395   -1.639992    2.804070
O     -1.032643   -0.930815    3.600782
C     -1.682180    0.186898    4.206371
C     -2.984018   -2.309485    3.379613
C     -3.846004   -3.051349    2.577657
C     -3.617367   -3.127546    1.207233
C     -2.519888   -2.475621    0.637447
C     -1.629957   -1.731460    1.425267
C     -0.425926   -1.022548    0.842421
C      0.154908   -1.370609   -0.556717
C      0.927775   -2.680161   -0.588879
C      2.137180   -2.832073    0.111727
C      2.845227   -4.036135    0.083549
C      2.355875   -5.115994   -0.645127
C      1.162157   -4.988635   -1.349258
C      0.466348   -3.775255   -1.336810
O     -0.724696   -3.675894   -2.005432
C     -0.534942   -3.758161   -3.419425
N      1.004127   -0.188499   -0.839351
C      1.590368   -0.012060   -2.088026
C      2.381879    1.183423   -2.358214
C      3.033629    1.562325   -3.521247
C      3.662180    2.803662   -3.263409
C      3.370431    3.115547   -1.955100
C      3.709019    4.255522   -1.079550
O      2.603709    2.137190   -1.402296
O      1.437580   -0.858914   -2.968549
C      0.689933    0.895196    0.094738
C      1.797172    1.207806    1.143827
O      2.902526    0.431611    1.055812
O      1.727822    2.040544    2.038901
N     -0.508809    0.451099    0.802887
C     -1.679787    1.068372    0.330668
C     -1.781068    2.494142    0.601589
C     -1.220397    3.314127    1.565764
C     -1.652442    4.633502    1.289828
C     -2.458481    4.547803    0.177853
C     -3.225546    5.539339   -0.600997
O     -2.552249    3.254015   -0.234986
O     -2.544472    0.447872   -0.283623
H     -2.299991    0.737529    3.487700
H     -2.284793   -0.126477    5.063110
H     -0.905925    0.866895    4.570286
H     -3.153235   -2.266187    4.450866
H     -4.694177   -3.567352    3.018722
H     -4.293854   -3.692721    0.571353
H     -2.393046   -2.543868   -0.439241
H      0.381695   -1.223817    1.564325
H     -0.631816   -1.351957   -1.319244
H      2.547051   -2.009720    0.690703
H      3.777972   -4.128865    0.633167
H      2.898478   -6.056475   -0.658859
H      0.769512   -5.840989   -1.894406
H      0.291840   -3.125136   -3.759295
H     -1.452574   -3.406280   -3.898818
H     -0.372151   -4.796361   -3.729120
H      3.040658    0.995385   -4.443460
H      4.253686    3.394764   -3.948722
H      2.892101    4.984092   -1.075211
H      3.876334    3.920242   -0.050574
H      4.618315    4.756750   -1.427188
H      0.495380    1.810660   -0.471779
H      3.479599    0.756318    1.777237
H     -0.586720    2.994235    2.379722
H     -1.412441    5.534447    1.837787
H     -4.269897    5.548076   -0.275860
H     -3.198934    5.304607   -1.670033
H     -2.812645    6.543416   -0.464176
