
  xtb     03162223383D
 xtb: 6.3.3 (4ae9cef)
 68 72  0     0  0            999 V2000
   -1.8993   -1.4089    2.6608 C   0  0  0  0  0  0  0  0  0  0  0  0
   -1.1183   -0.4949    3.3104 O   0  0  0  0  0  0  0  0  0  0  0  0
   -1.5109   -0.0719    4.5925 C   0  0  0  0  0  0  0  0  0  0  0  0
   -2.9650   -2.0845    3.2336 C   0  0  0  0  0  0  0  0  0  0  0  0
   -3.6804   -3.0078    2.4874 C   0  0  0  0  0  0  0  0  0  0  0  0
   -3.3392   -3.2599    1.1747 C   0  0  0  0  0  0  0  0  0  0  0  0
   -2.2803   -2.5795    0.5930 C   0  0  0  0  0  0  0  0  0  0  0  0
   -1.5595   -1.6513    1.3187 C   0  0  0  0  0  0  0  0  0  0  0  0
   -0.3770   -0.9035    0.7779 C   0  0  0  0  0  0  0  0  0  0  0  0
    0.1252   -1.2277   -0.6386 C   0  0  0  0  0  0  0  0  0  0  0  0
    0.8749   -2.5248   -0.7582 C   0  0  0  0  0  0  0  0  0  0  0  0
    2.0459   -2.7340   -0.0501 C   0  0  0  0  0  0  0  0  0  0  0  0
    2.7532   -3.9175   -0.1692 C   0  0  0  0  0  0  0  0  0  0  0  0
    2.2863   -4.9055   -1.0133 C   0  0  0  0  0  0  0  0  0  0  0  0
    1.1214   -4.7150   -1.7357 C   0  0  0  0  0  0  0  0  0  0  0  0
    0.4067   -3.5295   -1.6183 C   0  0  0  0  0  0  0  0  0  0  0  0
   -0.7536   -3.2730   -2.2867 O   0  0  0  0  0  0  0  0  0  0  0  0
   -1.1673   -4.1681   -3.2904 C   0  0  0  0  0  0  0  0  0  0  0  0
    0.9788   -0.0607   -0.8889 N   0  0  0  0  0  0  0  0  0  0  0  0
    1.8146   -0.0155   -1.9599 C   0  0  0  0  0  0  0  0  0  0  0  0
    2.6795    1.1632   -2.0923 C   0  0  0  0  0  0  0  0  0  0  0  0
    3.5937    1.4248   -3.0817 C   0  0  0  0  0  0  0  0  0  0  0  0
    4.2041    2.6512   -2.7486 C   0  0  0  0  0  0  0  0  0  0  0  0
    3.6307    3.0640   -1.5776 C   0  0  0  0  0  0  0  0  0  0  0  0
    3.8298    4.2709   -0.7331 C   0  0  0  0  0  0  0  0  0  0  0  0
    2.7086    2.1673   -1.1770 O   0  0  0  0  0  0  0  0  0  0  0  0
    1.8737   -0.9223   -2.7716 O   0  0  0  0  0  0  0  0  0  0  0  0
    0.6389    1.0237    0.0139 C   0  0  0  0  0  0  0  0  0  0  0  0
    1.7490    1.3151    1.0432 C   0  0  0  0  0  0  0  0  0  0  0  0
    2.5387    0.2715    1.2619 O   0  0  0  0  0  0  0  0  0  0  0  0
    1.8736    2.3582    1.6246 O   0  0  0  0  0  0  0  0  0  0  0  0
   -0.5392    0.5552    0.7036 N   0  0  0  0  0  0  0  0  0  0  0  0
   -1.7686    1.1642    0.6306 C   0  0  0  0  0  0  0  0  0  0  0  0
   -1.7543    2.6305    0.4610 C   0  0  0  0  0  0  0  0  0  0  0  0
   -0.8992    3.6348    0.8447 C   0  0  0  0  0  0  0  0  0  0  0  0
   -1.5370    4.8459    0.5040 C   0  0  0  0  0  0  0  0  0  0  0  0
   -2.7371    4.5063   -0.0590 C   0  0  0  0  0  0  0  0  0  0  0  0
   -3.8304    5.3402   -0.6218 C   0  0  0  0  0  0  0  0  0  0  0  0
   -2.8737    3.1734   -0.0779 O   0  0  0  0  0  0  0  0  0  0  0  0
   -2.8147    0.5634    0.7533 O   0  0  0  0  0  0  0  0  0  0  0  0
   -2.5259    0.3364    4.5838 H   0  0  0  0  0  0  0  0  0  0  0  0
   -1.4501   -0.8854    5.3238 H   0  0  0  0  0  0  0  0  0  0  0  0
   -0.8096    0.7140    4.8707 H   0  0  0  0  0  0  0  0  0  0  0  0
   -3.2507   -1.9002    4.2573 H   0  0  0  0  0  0  0  0  0  0  0  0
   -4.5103   -3.5260    2.9449 H   0  0  0  0  0  0  0  0  0  0  0  0
   -3.8990   -3.9782    0.5954 H   0  0  0  0  0  0  0  0  0  0  0  0
   -2.0270   -2.7710   -0.4359 H   0  0  0  0  0  0  0  0  0  0  0  0
    0.4529   -1.0735    1.4791 H   0  0  0  0  0  0  0  0  0  0  0  0
   -0.7046   -1.2206   -1.3545 H   0  0  0  0  0  0  0  0  0  0  0  0
    2.4219   -1.9485    0.5860 H   0  0  0  0  0  0  0  0  0  0  0  0
    3.6669   -4.0616    0.3871 H   0  0  0  0  0  0  0  0  0  0  0  0
    2.8306   -5.8320   -1.1218 H   0  0  0  0  0  0  0  0  0  0  0  0
    0.7819   -5.4975   -2.3957 H   0  0  0  0  0  0  0  0  0  0  0  0
   -0.3922   -4.2995   -4.0507 H   0  0  0  0  0  0  0  0  0  0  0  0
   -2.0457   -3.7120   -3.7454 H   0  0  0  0  0  0  0  0  0  0  0  0
   -1.4437   -5.1422   -2.8727 H   0  0  0  0  0  0  0  0  0  0  0  0
    3.7874    0.8022   -3.9301 H   0  0  0  0  0  0  0  0  0  0  0  0
    4.9675    3.1612   -3.2995 H   0  0  0  0  0  0  0  0  0  0  0  0
    3.3715    5.1428   -1.1989 H   0  0  0  0  0  0  0  0  0  0  0  0
    3.3633    4.1103    0.2356 H   0  0  0  0  0  0  0  0  0  0  0  0
    4.8899    4.4741   -0.6014 H   0  0  0  0  0  0  0  0  0  0  0  0
    0.4270    1.9592   -0.5189 H   0  0  0  0  0  0  0  0  0  0  0  0
    3.2124    0.4829    1.9299 H   0  0  0  0  0  0  0  0  0  0  0  0
    0.0490    3.5259    1.3281 H   0  0  0  0  0  0  0  0  0  0  0  0
   -1.1588    5.8354    0.6605 H   0  0  0  0  0  0  0  0  0  0  0  0
   -4.7720    5.1081   -0.1268 H   0  0  0  0  0  0  0  0  0  0  0  0
   -3.9540    5.1354   -1.6847 H   0  0  0  0  0  0  0  0  0  0  0  0
   -3.6005    6.3924   -0.4851 H   0  0  0  0  0  0  0  0  0  0  0  0
  1  2  1  0  0  0  0
  2  3  1  0  0  0  0
  1  4  4  0  0  0  0
  4  5  4  0  0  0  0
  5  6  4  0  0  0  0
  6  7  4  0  0  0  0
  1  8  4  0  0  0  0
  7  8  4  0  0  0  0
  8  9  1  0  0  0  0
  9 10  1  0  0  0  0
 10 11  1  0  0  0  0
 11 12  4  0  0  0  0
 12 13  4  0  0  0  0
 13 14  4  0  0  0  0
 14 15  4  0  0  0  0
 11 16  4  0  0  0  0
 15 16  4  0  0  0  0
 16 17  1  0  0  0  0
 17 18  1  0  0  0  0
 10 19  1  0  0  0  0
 19 20  4  0  0  0  0
 20 21  1  0  0  0  0
 21 22  2  0  0  0  0
 22 23  4  0  0  0  0
 23 24  2  0  0  0  0
 24 25  1  0  0  0  0
 21 26  1  0  0  0  0
 24 26  1  0  0  0  0
 20 27  2  0  0  0  0
 19 28  1  0  0  0  0
 28 29  1  0  0  0  0
 29 30  1  0  0  0  0
 29 31  2  0  0  0  0
  9 32  1  0  0  0  0
 28 32  1  0  0  0  0
 32 33  1  0  0  0  0
 33 34  1  0  0  0  0
 34 35  2  0  0  0  0
 35 36  4  0  0  0  0
 36 37  2  0  0  0  0
 37 38  1  0  0  0  0
 34 39  1  0  0  0  0
 37 39  1  0  0  0  0
 33 40  2  0  0  0  0
  3 41  1  0  0  0  0
  3 42  1  0  0  0  0
  3 43  1  0  0  0  0
  4 44  1  0  0  0  0
  5 45  1  0  0  0  0
  6 46  1  0  0  0  0
  7 47  1  0  0  0  0
  9 48  1  0  0  0  0
 10 49  1  0  0  0  0
 12 50  1  0  0  0  0
 13 51  1  0  0  0  0
 14 52  1  0  0  0  0
 15 53  1  0  0  0  0
 18 54  1  0  0  0  0
 18 55  1  0  0  0  0
 18 56  1  0  0  0  0
 22 57  1  0  0  0  0
 23 58  1  0  0  0  0
 25 59  1  0  0  0  0
 25 60  1  0  0  0  0
 25 61  1  0  0  0  0
 28 62  1  0  0  0  0
 30 63  1  0  0  0  0
 35 64  1  0  0  0  0
 36 65  1  0  0  0  0
 38 66  1  0  0  0  0
 38 67  1  0  0  0  0
 38 68  1  0  0  0  0
M  END
