78

C     -3.051592    2.520811    1.314705
C     -3.584783    2.730675    2.589682
C     -2.963208    2.194164    3.727188
C     -3.478207    2.402204    5.018051
C     -2.841890    1.860502    6.135274
C     -1.684371    1.103356    5.976654
C     -1.161914    0.887764    4.701722
C     -1.790594    1.425961    3.568338
C     -1.272316    1.217333    2.279210
C     -1.882824    1.768246    1.138561
C     -1.330902    1.554633   -0.274157
C      0.157372    1.978213   -0.400924
C      0.584297    2.604731   -1.726260
C      1.778618    3.353271   -1.755762
C      2.266870    3.932750   -2.938150
C      3.466940    4.663943   -2.953833
C      3.938612    5.234403   -4.136817
C      3.217923    5.079671   -5.318195
C      2.025478    4.354473   -5.318130
C      1.538169    3.773117   -4.134304
C      0.345669    3.036178   -4.111357
C     -0.120695    2.453028   -2.927365
N      0.871773    0.708321   -0.188358
C      2.021980    0.684798    0.589927
C      2.591223   -0.566065    1.069720
C      2.594150   -1.893994    0.675129
C      3.351233   -2.627136    1.633568
C      3.718757   -3.972271    1.811893
C      4.522758   -4.306155    2.914008
C      4.951939   -3.329794    3.818561
C      4.592875   -1.989174    3.656951
C      3.796704   -1.692587    2.553513
O      3.344908   -0.459446    2.219322
O      2.511300    1.759237    0.947360
C      0.029449   -0.397446   -0.625500
C      0.539652   -0.836640   -2.034972
O     -0.405137   -0.845377   -3.000327
O      1.679810   -1.181055   -2.308955
N     -1.330374    0.127243   -0.620290
C     -2.528885   -0.520905   -0.887668
C     -2.591607   -1.967696   -1.066617
C     -1.754055   -3.051769   -0.840943
C     -2.452467   -4.225247   -1.246116
C     -3.696124   -3.792515   -1.675912
C     -4.702267   -4.634198   -2.142768
C     -4.405947   -6.000465   -2.169906
C     -3.161274   -6.479024   -1.749518
C     -2.169985   -5.602965   -1.281739
O     -3.784012   -2.445753   -1.568667
O     -3.551969    0.164812   -0.985681
H     -3.573543    2.938764    0.454125
H     -4.494082    3.319702    2.687096
H     -4.377071    2.996458    5.161027
H     -3.248356    2.031671    7.128797
H     -1.188504    0.682212    6.844783
H     -0.253208    0.297858    4.601177
H     -0.376014    0.612238    2.182616
H     -1.970606    2.102281   -0.973992
H      0.400949    2.707039    0.385264
H      2.352258    3.480434   -0.836346
H      4.043356    4.791102   -2.038925
H      4.869979    5.796072   -4.136442
H      3.586701    5.524518   -6.238176
H      1.477542    4.246364   -6.251448
H     -0.231842    2.904578   -5.025164
H     -1.040894    1.877650   -2.983814
H      2.139336   -2.317959   -0.205590
H      3.397279   -4.739723    1.112691
H      4.820851   -5.340995    3.065016
H      5.579481   -3.618676    4.659799
H      4.925205   -1.216412    4.338929
H      0.088967   -1.223941    0.080592
H      0.080222   -1.068649   -3.823864
H     -0.758234   -3.052821   -0.423718
H     -5.662787   -4.244196   -2.459244
H     -5.158925   -6.702738   -2.520774
H     -2.960386   -7.549499   -1.782732
H     -1.208736   -5.989489   -0.951828
