
  xtb     03172201013D
 xtb: 6.3.3 (4ae9cef)
 78 86  0     0  0            999 V2000
   -2.3072    3.1661    1.8055 C   0  0  0  0  0  0  0  0  0  0  0  0
   -2.5440    3.3840    3.1314 C   0  0  0  0  0  0  0  0  0  0  0  0
   -2.2596    2.3894    4.0907 C   0  0  0  0  0  0  0  0  0  0  0  0
   -2.4797    2.5856    5.4692 C   0  0  0  0  0  0  0  0  0  0  0  0
   -2.1837    1.6007    6.3696 C   0  0  0  0  0  0  0  0  0  0  0  0
   -1.6542    0.3764    5.9330 C   0  0  0  0  0  0  0  0  0  0  0  0
   -1.4337    0.1543    4.6027 C   0  0  0  0  0  0  0  0  0  0  0  0
   -1.7309    1.1495    3.6493 C   0  0  0  0  0  0  0  0  0  0  0  0
   -1.5073    0.9526    2.2721 C   0  0  0  0  0  0  0  0  0  0  0  0
   -1.7820    1.9370    1.3612 C   0  0  0  0  0  0  0  0  0  0  0  0
   -1.4647    1.7788   -0.1071 C   0  0  0  0  0  0  0  0  0  0  0  0
   -0.0251    2.2520   -0.3693 C   0  0  0  0  0  0  0  0  0  0  0  0
    0.3126    2.6681   -1.7815 C   0  0  0  0  0  0  0  0  0  0  0  0
    1.5699    3.1724   -2.0076 C   0  0  0  0  0  0  0  0  0  0  0  0
    1.9939    3.5368   -3.2985 C   0  0  0  0  0  0  0  0  0  0  0  0
    3.2830    4.0548   -3.5462 C   0  0  0  0  0  0  0  0  0  0  0  0
    3.6623    4.4004   -4.8123 C   0  0  0  0  0  0  0  0  0  0  0  0
    2.7728    4.2450   -5.8884 C   0  0  0  0  0  0  0  0  0  0  0  0
    1.5181    3.7452   -5.6813 C   0  0  0  0  0  0  0  0  0  0  0  0
    1.0956    3.3792   -4.3862 C   0  0  0  0  0  0  0  0  0  0  0  0
   -0.1888    2.8598   -4.1295 C   0  0  0  0  0  0  0  0  0  0  0  0
   -0.5729    2.5111   -2.8641 C   0  0  0  0  0  0  0  0  0  0  0  0
    0.7229    1.0383   -0.0398 N   0  0  0  0  0  0  0  0  0  0  0  0
    1.5389    1.0145    1.0582 C   0  0  0  0  0  0  0  0  0  0  0  0
    2.0568   -0.3213    1.4319 C   0  0  0  0  0  0  0  0  0  0  0  0
    2.5452   -1.3394    0.6645 C   0  0  0  0  0  0  0  0  0  0  0  0
    2.9816   -2.3444    1.5762 C   0  0  0  0  0  0  0  0  0  0  0  0
    3.5593   -3.6078    1.4505 C   0  0  0  0  0  0  0  0  0  0  0  0
    3.8373   -4.3098    2.6014 C   0  0  0  0  0  0  0  0  0  0  0  0
    3.5528   -3.7835    3.8650 C   0  0  0  0  0  0  0  0  0  0  0  0
    2.9817   -2.5369    4.0179 C   0  0  0  0  0  0  0  0  0  0  0  0
    2.7056   -1.8253    2.8594 C   0  0  0  0  0  0  0  0  0  0  0  0
    2.1532   -0.5984    2.7597 O   0  0  0  0  0  0  0  0  0  0  0  0
    1.8529    2.0279    1.6423 O   0  0  0  0  0  0  0  0  0  0  0  0
   -0.0231   -0.0619   -0.5881 C   0  0  0  0  0  0  0  0  0  0  0  0
    0.4414   -0.3304   -2.0362 C   0  0  0  0  0  0  0  0  0  0  0  0
   -0.5650   -0.4780   -2.8845 O   0  0  0  0  0  0  0  0  0  0  0  0
    1.5970   -0.4345   -2.3385 O   0  0  0  0  0  0  0  0  0  0  0  0
   -1.4019    0.3760   -0.5019 N   0  0  0  0  0  0  0  0  0  0  0  0
   -2.5247   -0.3065   -0.8416 C   0  0  0  0  0  0  0  0  0  0  0  0
   -2.3359   -1.7663   -1.0683 C   0  0  0  0  0  0  0  0  0  0  0  0
   -1.7725   -2.7172   -0.2704 C   0  0  0  0  0  0  0  0  0  0  0  0
   -1.9736   -3.9633   -0.9332 C   0  0  0  0  0  0  0  0  0  0  0  0
   -2.6684   -3.6395   -2.1170 C   0  0  0  0  0  0  0  0  0  0  0  0
   -3.0386   -4.6057   -3.0408 C   0  0  0  0  0  0  0  0  0  0  0  0
   -2.7018   -5.9118   -2.7500 C   0  0  0  0  0  0  0  0  0  0  0  0
   -2.0157   -6.2484   -1.5800 C   0  0  0  0  0  0  0  0  0  0  0  0
   -1.6446   -5.2908   -0.6630 C   0  0  0  0  0  0  0  0  0  0  0  0
   -2.8876   -2.3088   -2.1814 O   0  0  0  0  0  0  0  0  0  0  0  0
   -3.6081    0.2312   -0.9129 O   0  0  0  0  0  0  0  0  0  0  0  0
   -2.5205    3.9352    1.0774 H   0  0  0  0  0  0  0  0  0  0  0  0
   -2.9507    4.3273    3.4662 H   0  0  0  0  0  0  0  0  0  0  0  0
   -2.8846    3.5311    5.8007 H   0  0  0  0  0  0  0  0  0  0  0  0
   -2.3528    1.7576    7.4249 H   0  0  0  0  0  0  0  0  0  0  0  0
   -1.4225   -0.3890    6.6594 H   0  0  0  0  0  0  0  0  0  0  0  0
   -1.0228   -0.7861    4.2630 H   0  0  0  0  0  0  0  0  0  0  0  0
   -1.1174   -0.0042    1.9542 H   0  0  0  0  0  0  0  0  0  0  0  0
   -2.2142    2.3031   -0.7036 H   0  0  0  0  0  0  0  0  0  0  0  0
    0.2805    3.0314    0.3355 H   0  0  0  0  0  0  0  0  0  0  0  0
    2.2549    3.2876   -1.1798 H   0  0  0  0  0  0  0  0  0  0  0  0
    3.9620    4.1712   -2.7142 H   0  0  0  0  0  0  0  0  0  0  0  0
    4.6500    4.7965   -4.9969 H   0  0  0  0  0  0  0  0  0  0  0  0
    3.0910    4.5247   -6.8820 H   0  0  0  0  0  0  0  0  0  0  0  0
    0.8298    3.6246   -6.5059 H   0  0  0  0  0  0  0  0  0  0  0  0
   -0.8749    2.7381   -4.9558 H   0  0  0  0  0  0  0  0  0  0  0  0
   -1.5609    2.1061   -2.7085 H   0  0  0  0  0  0  0  0  0  0  0  0
    2.6187   -1.3523   -0.4043 H   0  0  0  0  0  0  0  0  0  0  0  0
    3.7792   -4.0136    0.4752 H   0  0  0  0  0  0  0  0  0  0  0  0
    4.2864   -5.2894    2.5338 H   0  0  0  0  0  0  0  0  0  0  0  0
    3.7884   -4.3679    4.7414 H   0  0  0  0  0  0  0  0  0  0  0  0
    2.7620   -2.1215    4.9879 H   0  0  0  0  0  0  0  0  0  0  0  0
    0.1701   -0.9836   -0.0233 H   0  0  0  0  0  0  0  0  0  0  0  0
   -0.2461   -0.6409   -3.7876 H   0  0  0  0  0  0  0  0  0  0  0  0
   -1.3081   -2.5734    0.6848 H   0  0  0  0  0  0  0  0  0  0  0  0
   -3.5713   -4.3384   -3.9389 H   0  0  0  0  0  0  0  0  0  0  0  0
   -2.9757   -6.6947   -3.4407 H   0  0  0  0  0  0  0  0  0  0  0  0
   -1.7749   -7.2846   -1.3959 H   0  0  0  0  0  0  0  0  0  0  0  0
   -1.1152   -5.5522    0.2404 H   0  0  0  0  0  0  0  0  0  0  0  0
  1  2  2  0  0  0  0
  2  3  4  0  0  0  0
  3  4  4  0  0  0  0
  4  5  2  0  0  0  0
  5  6  4  0  0  0  0
  6  7  2  0  0  0  0
  3  8  4  0  0  0  0
  7  8  4  0  0  0  0
  8  9  4  0  0  0  0
  1 10  4  0  0  0  0
  9 10  2  0  0  0  0
 10 11  1  0  0  0  0
 11 12  1  0  0  0  0
 12 13  1  0  0  0  0
 13 14  2  0  0  0  0
 14 15  4  0  0  0  0
 15 16  4  0  0  0  0
 16 17  2  0  0  0  0
 17 18  4  0  0  0  0
 18 19  2  0  0  0  0
 15 20  4  0  0  0  0
 19 20  4  0  0  0  0
 20 21  4  0  0  0  0
 13 22  4  0  0  0  0
 21 22  2  0  0  0  0
 12 23  1  0  0  0  0
 23 24  1  0  0  0  0
 24 25  1  0  0  0  0
 25 26  2  0  0  0  0
 26 27  4  0  0  0  0
 27 28  4  0  0  0  0
 28 29  2  0  0  0  0
 29 30  4  0  0  0  0
 30 31  4  0  0  0  0
 27 32  4  0  0  0  0
 31 32  4  0  0  0  0
 25 33  1  0  0  0  0
 32 33  1  0  0  0  0
 24 34  2  0  0  0  0
 23 35  1  0  0  0  0
 35 36  1  0  0  0  0
 36 37  1  0  0  0  0
 36 38  2  0  0  0  0
 11 39  1  0  0  0  0
 35 39  1  0  0  0  0
 39 40  4  0  0  0  0
 40 41  1  0  0  0  0
 41 42  2  0  0  0  0
 42 43  4  0  0  0  0
 43 44  4  0  0  0  0
 44 45  4  0  0  0  0
 45 46  4  0  0  0  0
 46 47  4  0  0  0  0
 43 48  4  0  0  0  0
 47 48  2  0  0  0  0
 41 49  1  0  0  0  0
 44 49  1  0  0  0  0
 40 50  2  0  0  0  0
  1 51  1  0  0  0  0
  2 52  1  0  0  0  0
  4 53  1  0  0  0  0
  5 54  1  0  0  0  0
  6 55  1  0  0  0  0
  7 56  1  0  0  0  0
  9 57  1  0  0  0  0
 11 58  1  0  0  0  0
 12 59  1  0  0  0  0
 14 60  1  0  0  0  0
 16 61  1  0  0  0  0
 17 62  1  0  0  0  0
 18 63  1  0  0  0  0
 19 64  1  0  0  0  0
 21 65  1  0  0  0  0
 22 66  1  0  0  0  0
 26 67  1  0  0  0  0
 28 68  1  0  0  0  0
 29 69  1  0  0  0  0
 30 70  1  0  0  0  0
 31 71  1  0  0  0  0
 35 72  1  0  0  0  0
 37 73  1  0  0  0  0
 42 74  1  0  0  0  0
 45 75  1  0  0  0  0
 46 76  1  0  0  0  0
 47 77  1  0  0  0  0
 48 78  1  0  0  0  0
M  END
