66

C      1.153163   -0.698286    2.348839
C      1.779811   -1.557145    3.254335
C      2.631912   -2.576718    2.804142
C      3.257700   -3.456136    3.700639
C      4.098376   -4.470160    3.236982
C      4.331255   -4.610745    1.871516
C      3.720122   -3.741496    0.967677
C      2.865239   -2.722375    1.418653
C      2.232383   -1.848457    0.519918
C      1.365880   -0.838383    0.969839
C      0.647555    0.042721   -0.041924
C     -0.877200   -0.280015   -0.070180
C     -1.270370   -0.939983   -1.382844
C     -0.964002   -2.305428   -1.549930
C     -1.236044   -2.983941   -2.748530
C     -0.910966   -4.339750   -2.909196
C     -1.176609   -4.997908   -4.110152
C     -1.769830   -4.308643   -5.164685
C     -2.100827   -2.960276   -5.017229
C     -1.839744   -2.283960   -3.814475
C     -2.164875   -0.929059   -3.643282
C     -1.886145   -0.265784   -2.442608
N     -1.531783    0.991745    0.243024
C     -2.849165    1.025296    0.671728
C     -3.374748    2.277231    1.178725
C     -2.991542    3.006409    2.292569
C     -3.799815    4.167628    2.479659
C     -4.774868    4.248443    1.518211
Cl    -5.974904    5.469278    1.388000
S     -4.737722    2.979876    0.404627
O     -3.538849    0.010236    0.648582
C     -0.582183    2.090608    0.200731
C     -0.807498    2.883900   -1.122262
O      0.219514    2.832848   -1.997285
O     -1.820932    3.495756   -1.423605
N      0.722871    1.460391    0.296315
C      1.929322    2.142373    0.317866
C      1.910036    3.510558    0.803312
C      2.267863    4.664053    0.127560
C      2.141279    5.827329    0.943837
C      1.730282    5.500058    2.210041
Cl     1.445138    6.583531    3.508293
S      1.512398    3.838222    2.442911
O      2.972129    1.614838   -0.063851
H      0.493627    0.077416    2.730827
H      1.595476   -1.425937    4.318126
H      3.091370   -3.360458    4.772438
H      4.576941   -5.143613    3.942263
H      4.990394   -5.397261    1.511571
H      3.914728   -3.862797   -0.095236
H      2.414593   -1.960150   -0.548810
H      1.108526   -0.068941   -1.032183
H     -1.165474   -0.973828    0.732342
H     -0.505317   -2.854757   -0.726379
H     -0.448654   -4.896365   -2.095778
H     -0.917352   -6.047392   -4.218730
H     -1.976571   -4.818524   -6.102895
H     -2.563761   -2.439549   -5.852131
H     -2.641528   -0.373136   -4.450518
H     -2.174267    0.777498   -2.359265
H     -2.191796    2.706741    2.958723
H     -3.689382    4.871396    3.292313
H     -0.719275    2.783754    1.026507
H     -0.080321    3.344259   -2.780600
H      2.591505    4.670141   -0.909254
H      2.342932    6.842825    0.620175
