
  xtb     03172201403D
 xtb: 6.3.3 (4ae9cef)
 84 88  0     0  0            999 V2000
    1.0556   -4.3147   -2.6046 C   0  0  0  0  0  0  0  0  0  0  0  0
   -0.2044   -4.3395   -3.4233 C   0  0  0  0  0  0  0  0  0  0  0  0
   -1.3007   -4.5996   -2.6719 F   0  0  0  0  0  0  0  0  0  0  0  0
   -0.4705   -3.1823   -4.0548 F   0  0  0  0  0  0  0  0  0  0  0  0
   -0.1941   -5.2796   -4.3762 F   0  0  0  0  0  0  0  0  0  0  0  0
    2.0514   -5.2393   -2.8957 C   0  0  0  0  0  0  0  0  0  0  0  0
    3.2169   -5.2654   -2.1551 C   0  0  0  0  0  0  0  0  0  0  0  0
    3.3887   -4.3702   -1.1141 C   0  0  0  0  0  0  0  0  0  0  0  0
    2.3976   -3.4546   -0.8222 C   0  0  0  0  0  0  0  0  0  0  0  0
    1.2216   -3.4035   -1.5619 C   0  0  0  0  0  0  0  0  0  0  0  0
    0.1775   -2.3873   -1.1833 C   0  0  0  0  0  0  0  0  0  0  0  0
   -0.4802   -2.6916    0.1820 C   0  0  0  0  0  0  0  0  0  0  0  0
   -1.7572   -3.4779    0.0449 C   0  0  0  0  0  0  0  0  0  0  0  0
   -1.8835   -4.8015    0.4661 C   0  0  0  0  0  0  0  0  0  0  0  0
   -0.7257   -5.5375    1.0791 C   0  0  0  0  0  0  0  0  0  0  0  0
   -0.2480   -4.9686    2.2007 F   0  0  0  0  0  0  0  0  0  0  0  0
   -1.0190   -6.8010    1.4082 F   0  0  0  0  0  0  0  0  0  0  0  0
    0.3339   -5.6198    0.2388 F   0  0  0  0  0  0  0  0  0  0  0  0
   -3.0860   -5.4791    0.3042 C   0  0  0  0  0  0  0  0  0  0  0  0
   -4.1684   -4.8484   -0.2770 C   0  0  0  0  0  0  0  0  0  0  0  0
   -4.0495   -3.5387   -0.7075 C   0  0  0  0  0  0  0  0  0  0  0  0
   -2.8544   -2.8657   -0.5503 C   0  0  0  0  0  0  0  0  0  0  0  0
   -0.7255   -1.3595    0.7231 N   0  0  0  0  0  0  0  0  0  0  0  0
   -1.6047   -1.1109    1.7356 C   0  0  0  0  0  0  0  0  0  0  0  0
   -1.7382    0.3528    2.0144 C   0  0  0  0  0  0  0  0  0  0  0  0
   -2.8762    1.0174    1.5733 C   0  0  0  0  0  0  0  0  0  0  0  0
   -2.9683    2.3903    1.6961 C   0  0  0  0  0  0  0  0  0  0  0  0
   -1.9362    3.1258    2.2665 C   0  0  0  0  0  0  0  0  0  0  0  0
   -1.9793    4.6317    2.3034 C   0  0  0  0  0  0  0  0  0  0  0  0
   -3.1835    5.1441    3.0948 C   0  0  0  0  0  0  0  0  0  0  0  0
   -1.9873    5.1783    0.8728 C   0  0  0  0  0  0  0  0  0  0  0  0
   -0.8380    2.4420    2.7731 C   0  0  0  0  0  0  0  0  0  0  0  0
   -0.7356    1.0698    2.6543 C   0  0  0  0  0  0  0  0  0  0  0  0
   -2.2270   -1.9866    2.2911 O   0  0  0  0  0  0  0  0  0  0  0  0
    0.0776   -0.3536    0.0728 C   0  0  0  0  0  0  0  0  0  0  0  0
   -0.7783    0.7704   -0.5501 C   0  0  0  0  0  0  0  0  0  0  0  0
   -1.7627    0.2784   -1.2991 O   0  0  0  0  0  0  0  0  0  0  0  0
   -0.5481    1.9414   -0.4361 O   0  0  0  0  0  0  0  0  0  0  0  0
    0.7821   -1.0787   -0.9589 N   0  0  0  0  0  0  0  0  0  0  0  0
    1.6731   -0.5321   -1.8439 C   0  0  0  0  0  0  0  0  0  0  0  0
    2.1400    0.8291   -1.4521 C   0  0  0  0  0  0  0  0  0  0  0  0
    2.8414    1.0275   -0.2680 C   0  0  0  0  0  0  0  0  0  0  0  0
    3.1942    2.3026    0.1244 C   0  0  0  0  0  0  0  0  0  0  0  0
    2.8529    3.4069   -0.6486 C   0  0  0  0  0  0  0  0  0  0  0  0
    3.1509    4.8068   -0.1749 C   0  0  0  0  0  0  0  0  0  0  0  0
    2.3800    5.0927    1.1167 C   0  0  0  0  0  0  0  0  0  0  0  0
    4.6522    5.0231    0.0228 C   0  0  0  0  0  0  0  0  0  0  0  0
    2.2062    3.1920   -1.8581 C   0  0  0  0  0  0  0  0  0  0  0  0
    1.8596    1.9171   -2.2653 C   0  0  0  0  0  0  0  0  0  0  0  0
    2.0397   -1.1279   -2.8316 O   0  0  0  0  0  0  0  0  0  0  0  0
    1.9099   -5.9372   -3.7061 H   0  0  0  0  0  0  0  0  0  0  0  0
    3.9859   -5.9840   -2.3908 H   0  0  0  0  0  0  0  0  0  0  0  0
    4.2951   -4.3856   -0.5285 H   0  0  0  0  0  0  0  0  0  0  0  0
    2.5372   -2.7545   -0.0120 H   0  0  0  0  0  0  0  0  0  0  0  0
   -0.5983   -2.2989   -1.9513 H   0  0  0  0  0  0  0  0  0  0  0  0
    0.2390   -3.2062    0.8282 H   0  0  0  0  0  0  0  0  0  0  0  0
   -3.1702   -6.5019    0.6365 H   0  0  0  0  0  0  0  0  0  0  0  0
   -5.0993   -5.3805   -0.3943 H   0  0  0  0  0  0  0  0  0  0  0  0
   -4.8895   -3.0409   -1.1677 H   0  0  0  0  0  0  0  0  0  0  0  0
   -2.7650   -1.8432   -0.8843 H   0  0  0  0  0  0  0  0  0  0  0  0
   -3.6742    0.4514    1.1141 H   0  0  0  0  0  0  0  0  0  0  0  0
   -3.8477    2.8937    1.3234 H   0  0  0  0  0  0  0  0  0  0  0  0
   -1.0687    4.9852    2.7994 H   0  0  0  0  0  0  0  0  0  0  0  0
   -3.1645    4.7535    4.1098 H   0  0  0  0  0  0  0  0  0  0  0  0
   -3.1649    6.2306    3.1410 H   0  0  0  0  0  0  0  0  0  0  0  0
   -4.1159    4.8380    2.6274 H   0  0  0  0  0  0  0  0  0  0  0  0
   -1.1913    4.7174    0.2917 H   0  0  0  0  0  0  0  0  0  0  0  0
   -2.9342    4.9618    0.3844 H   0  0  0  0  0  0  0  0  0  0  0  0
   -1.8432    6.2563    0.8788 H   0  0  0  0  0  0  0  0  0  0  0  0
   -0.0411    2.9944    3.2493 H   0  0  0  0  0  0  0  0  0  0  0  0
    0.1262    0.5535    3.0524 H   0  0  0  0  0  0  0  0  0  0  0  0
    0.7803    0.1323    0.7655 H   0  0  0  0  0  0  0  0  0  0  0  0
   -2.2637    0.9922   -1.7274 H   0  0  0  0  0  0  0  0  0  0  0  0
    3.1173    0.1785    0.3425 H   0  0  0  0  0  0  0  0  0  0  0  0
    3.7285    2.4374    1.0528 H   0  0  0  0  0  0  0  0  0  0  0  0
    2.8031    5.5074   -0.9418 H   0  0  0  0  0  0  0  0  0  0  0  0
    2.7385    4.4616    1.9263 H   0  0  0  0  0  0  0  0  0  0  0  0
    2.5070    6.1326    1.4095 H   0  0  0  0  0  0  0  0  0  0  0  0
    1.3200    4.8954    0.9724 H   0  0  0  0  0  0  0  0  0  0  0  0
    5.1906    4.8053   -0.8969 H   0  0  0  0  0  0  0  0  0  0  0  0
    4.8480    6.0558    0.3025 H   0  0  0  0  0  0  0  0  0  0  0  0
    5.0387    4.3776    0.8074 H   0  0  0  0  0  0  0  0  0  0  0  0
    1.9559    4.0349   -2.4858 H   0  0  0  0  0  0  0  0  0  0  0  0
    1.3478    1.7605   -3.2033 H   0  0  0  0  0  0  0  0  0  0  0  0
  1  2  1  0  0  0  0
  2  3  1  0  0  0  0
  2  4  1  0  0  0  0
  2  5  1  0  0  0  0
  1  6  4  0  0  0  0
  6  7  4  0  0  0  0
  7  8  4  0  0  0  0
  8  9  4  0  0  0  0
  1 10  4  0  0  0  0
  9 10  4  0  0  0  0
 10 11  1  0  0  0  0
 11 12  1  0  0  0  0
 12 13  1  0  0  0  0
 13 14  4  0  0  0  0
 14 15  1  0  0  0  0
 15 16  1  0  0  0  0
 15 17  1  0  0  0  0
 15 18  1  0  0  0  0
 14 19  4  0  0  0  0
 19 20  4  0  0  0  0
 20 21  4  0  0  0  0
 13 22  4  0  0  0  0
 21 22  4  0  0  0  0
 12 23  1  0  0  0  0
 23 24  1  0  0  0  0
 24 25  1  0  0  0  0
 25 26  4  0  0  0  0
 26 27  4  0  0  0  0
 27 28  4  0  0  0  0
 28 29  1  0  0  0  0
 29 30  1  0  0  0  0
 29 31  1  0  0  0  0
 28 32  4  0  0  0  0
 25 33  4  0  0  0  0
 32 33  4  0  0  0  0
 24 34  2  0  0  0  0
 23 35  1  0  0  0  0
 35 36  1  0  0  0  0
 36 37  1  0  0  0  0
 36 38  2  0  0  0  0
 11 39  1  0  0  0  0
 35 39  1  0  0  0  0
 39 40  1  0  0  0  0
 40 41  1  0  0  0  0
 41 42  4  0  0  0  0
 42 43  4  0  0  0  0
 43 44  4  0  0  0  0
 44 45  1  0  0  0  0
 45 46  1  0  0  0  0
 45 47  1  0  0  0  0
 44 48  4  0  0  0  0
 41 49  4  0  0  0  0
 48 49  4  0  0  0  0
 40 50  2  0  0  0  0
  6 51  1  0  0  0  0
  7 52  1  0  0  0  0
  8 53  1  0  0  0  0
  9 54  1  0  0  0  0
 11 55  1  0  0  0  0
 12 56  1  0  0  0  0
 19 57  1  0  0  0  0
 20 58  1  0  0  0  0
 21 59  1  0  0  0  0
 22 60  1  0  0  0  0
 26 61  1  0  0  0  0
 27 62  1  0  0  0  0
 29 63  1  0  0  0  0
 30 64  1  0  0  0  0
 30 65  1  0  0  0  0
 30 66  1  0  0  0  0
 31 67  1  0  0  0  0
 31 68  1  0  0  0  0
 31 69  1  0  0  0  0
 32 70  1  0  0  0  0
 33 71  1  0  0  0  0
 35 72  1  0  0  0  0
 37 73  1  0  0  0  0
 42 74  1  0  0  0  0
 43 75  1  0  0  0  0
 45 76  1  0  0  0  0
 46 77  1  0  0  0  0
 46 78  1  0  0  0  0
 46 79  1  0  0  0  0
 47 80  1  0  0  0  0
 47 81  1  0  0  0  0
 47 82  1  0  0  0  0
 48 83  1  0  0  0  0
 49 84  1  0  0  0  0
M  END
