
  xtb     03162223343D
 xtb: 6.3.3 (4ae9cef)
 62 66  0     0  0            999 V2000
   -2.8890   -0.0523   -0.3568 C   0  0  0  0  0  0  0  0  0  0  0  0
   -2.0855   -0.2781   -1.4425 O   0  0  0  0  0  0  0  0  0  0  0  0
   -2.6807   -0.5520   -2.6881 C   0  0  0  0  0  0  0  0  0  0  0  0
   -4.2691    0.0851   -0.4440 C   0  0  0  0  0  0  0  0  0  0  0  0
   -5.0235    0.3374    0.6879 C   0  0  0  0  0  0  0  0  0  0  0  0
   -4.4108    0.4555    1.9204 C   0  0  0  0  0  0  0  0  0  0  0  0
   -3.0388    0.3066    2.0120 C   0  0  0  0  0  0  0  0  0  0  0  0
   -2.2615    0.0455    0.8930 C   0  0  0  0  0  0  0  0  0  0  0  0
   -0.7714   -0.0907    1.0912 C   0  0  0  0  0  0  0  0  0  0  0  0
   -0.0404   -1.1078    0.1945 C   0  0  0  0  0  0  0  0  0  0  0  0
    0.9608   -1.8989    0.9995 C   0  0  0  0  0  0  0  0  0  0  0  0
    2.2686   -1.4838    1.1675 C   0  0  0  0  0  0  0  0  0  0  0  0
    3.1590   -2.2257    1.9257 C   0  0  0  0  0  0  0  0  0  0  0  0
    2.7319   -3.3948    2.5236 C   0  0  0  0  0  0  0  0  0  0  0  0
    1.4221   -3.8216    2.3790 C   0  0  0  0  0  0  0  0  0  0  0  0
    0.5245   -3.0764    1.6253 C   0  0  0  0  0  0  0  0  0  0  0  0
   -0.7881   -3.3935    1.4437 O   0  0  0  0  0  0  0  0  0  0  0  0
   -1.2770   -4.5869    2.0075 C   0  0  0  0  0  0  0  0  0  0  0  0
    0.6180   -0.2819   -0.8094 N   0  0  0  0  0  0  0  0  0  0  0  0
    1.2109   -0.8581   -1.8822 C   0  0  0  0  0  0  0  0  0  0  0  0
    2.0308    0.0362   -2.7400 C   0  0  0  0  0  0  0  0  0  0  0  0
    2.0362    0.0469   -4.1058 C   0  0  0  0  0  0  0  0  0  0  0  0
    2.9447    0.9151   -4.5770 O   0  0  0  0  0  0  0  0  0  0  0  0
    3.5513    1.4488   -3.5078 C   0  0  0  0  0  0  0  0  0  0  0  0
    4.8920    2.7062   -3.8139 Br  0  0  0  0  0  0  0  0  0  0  0  0
    3.0432    0.9577   -2.3445 C   0  0  0  0  0  0  0  0  0  0  0  0
    1.1198   -2.0464   -2.1111 O   0  0  0  0  0  0  0  0  0  0  0  0
    0.4011    1.1238   -0.5542 C   0  0  0  0  0  0  0  0  0  0  0  0
   -0.6299    1.7715   -1.5086 C   0  0  0  0  0  0  0  0  0  0  0  0
   -0.3428    1.5344   -2.7874 O   0  0  0  0  0  0  0  0  0  0  0  0
   -1.4999    2.5126   -1.1486 O   0  0  0  0  0  0  0  0  0  0  0  0
   -0.0675    1.1546    0.7992 N   0  0  0  0  0  0  0  0  0  0  0  0
    0.3819    1.9463    1.8071 C   0  0  0  0  0  0  0  0  0  0  0  0
    1.2034    3.1110    1.3956 C   0  0  0  0  0  0  0  0  0  0  0  0
    2.3656    3.5132    1.9939 C   0  0  0  0  0  0  0  0  0  0  0  0
    2.8349    4.6312    1.4202 O   0  0  0  0  0  0  0  0  0  0  0  0
    1.9567    4.9678    0.4621 C   0  0  0  0  0  0  0  0  0  0  0  0
    2.3229    6.4967   -0.5366 Br  0  0  0  0  0  0  0  0  0  0  0  0
    0.9300    4.0780    0.3850 C   0  0  0  0  0  0  0  0  0  0  0  0
    0.1252    1.7226    2.9710 O   0  0  0  0  0  0  0  0  0  0  0  0
   -3.2342    0.3117   -3.0722 H   0  0  0  0  0  0  0  0  0  0  0  0
   -1.8540   -0.7876   -3.3577 H   0  0  0  0  0  0  0  0  0  0  0  0
   -3.3507   -1.4141   -2.6269 H   0  0  0  0  0  0  0  0  0  0  0  0
   -4.7671    0.0060   -1.3972 H   0  0  0  0  0  0  0  0  0  0  0  0
   -6.0938    0.4457    0.5964 H   0  0  0  0  0  0  0  0  0  0  0  0
   -4.9942    0.6607    2.8042 H   0  0  0  0  0  0  0  0  0  0  0  0
   -2.5494    0.4019    2.9695 H   0  0  0  0  0  0  0  0  0  0  0  0
   -0.5940   -0.3147    2.1485 H   0  0  0  0  0  0  0  0  0  0  0  0
   -0.7311   -1.8067   -0.2826 H   0  0  0  0  0  0  0  0  0  0  0  0
    2.6008   -0.5715    0.6940 H   0  0  0  0  0  0  0  0  0  0  0  0
    4.1781   -1.8917    2.0448 H   0  0  0  0  0  0  0  0  0  0  0  0
    3.4177   -3.9852    3.1125 H   0  0  0  0  0  0  0  0  0  0  0  0
    1.1125   -4.7361    2.8591 H   0  0  0  0  0  0  0  0  0  0  0  0
   -1.2001   -4.5762    3.0993 H   0  0  0  0  0  0  0  0  0  0  0  0
   -0.7536   -5.4628    1.6120 H   0  0  0  0  0  0  0  0  0  0  0  0
   -2.3270   -4.6351    1.7232 H   0  0  0  0  0  0  0  0  0  0  0  0
    1.4467   -0.4928   -4.8181 H   0  0  0  0  0  0  0  0  0  0  0  0
    3.3875    1.1918   -1.3580 H   0  0  0  0  0  0  0  0  0  0  0  0
    1.3225    1.7110   -0.6707 H   0  0  0  0  0  0  0  0  0  0  0  0
   -0.9847    1.9806   -3.3648 H   0  0  0  0  0  0  0  0  0  0  0  0
    2.9318    3.0869    2.7971 H   0  0  0  0  0  0  0  0  0  0  0  0
    0.0770    4.1222   -0.2587 H   0  0  0  0  0  0  0  0  0  0  0  0
  1  2  1  0  0  0  0
  2  3  1  0  0  0  0
  1  4  4  0  0  0  0
  4  5  4  0  0  0  0
  5  6  4  0  0  0  0
  6  7  4  0  0  0  0
  1  8  4  0  0  0  0
  7  8  4  0  0  0  0
  8  9  1  0  0  0  0
  9 10  1  0  0  0  0
 10 11  1  0  0  0  0
 11 12  4  0  0  0  0
 12 13  4  0  0  0  0
 13 14  4  0  0  0  0
 14 15  4  0  0  0  0
 11 16  4  0  0  0  0
 15 16  4  0  0  0  0
 16 17  1  0  0  0  0
 17 18  1  0  0  0  0
 10 19  1  0  0  0  0
 19 20  4  0  0  0  0
 20 21  1  0  0  0  0
 21 22  2  0  0  0  0
 22 23  1  0  0  0  0
 23 24  1  0  0  0  0
 24 25  1  0  0  0  0
 21 26  4  0  0  0  0
 24 26  2  0  0  0  0
 20 27  2  0  0  0  0
 19 28  1  0  0  0  0
 28 29  1  0  0  0  0
 29 30  1  0  0  0  0
 29 31  2  0  0  0  0
  9 32  1  0  0  0  0
 28 32  1  0  0  0  0
 32 33  4  0  0  0  0
 33 34  1  0  0  0  0
 34 35  2  0  0  0  0
 35 36  1  0  0  0  0
 36 37  1  0  0  0  0
 37 38  1  0  0  0  0
 34 39  4  0  0  0  0
 37 39  2  0  0  0  0
 33 40  2  0  0  0  0
  3 41  1  0  0  0  0
  3 42  1  0  0  0  0
  3 43  1  0  0  0  0
  4 44  1  0  0  0  0
  5 45  1  0  0  0  0
  6 46  1  0  0  0  0
  7 47  1  0  0  0  0
  9 48  1  0  0  0  0
 10 49  1  0  0  0  0
 12 50  1  0  0  0  0
 13 51  1  0  0  0  0
 14 52  1  0  0  0  0
 15 53  1  0  0  0  0
 18 54  1  0  0  0  0
 18 55  1  0  0  0  0
 18 56  1  0  0  0  0
 22 57  1  0  0  0  0
 26 58  1  0  0  0  0
 28 59  1  0  0  0  0
 30 60  1  0  0  0  0
 35 61  1  0  0  0  0
 39 62  1  0  0  0  0
M  END
