72

C      2.469960   -2.272751    1.213659
C      3.178975   -2.591672    2.372516
C      2.735807   -2.134197    3.611599
C      1.582259   -1.356383    3.692893
C      0.873992   -1.030465    2.535210
C      1.311266   -1.481206    1.277834
C      0.561482   -1.133479    0.000005
C     -0.860560   -1.778364   -0.018198
C     -1.013885   -2.758401   -1.176944
C     -0.340442   -3.993942   -1.098820
C     -0.415298   -4.922353   -2.138581
C     -1.168102   -4.635597   -3.274336
C     -1.854441   -3.426446   -3.362584
C     -1.782865   -2.497456   -2.320971
N     -1.775754   -0.635185   -0.029859
C     -3.071352   -0.757544    0.425453
C     -3.894019    0.458183    0.566004
C     -3.641347    1.360913    1.602702
C     -4.439330    2.497242    1.736075
C     -5.507619    2.720232    0.855680
C     -6.364493    3.954432    0.991080
C     -5.965681    5.034839   -0.004664
C     -5.761946    1.793162   -0.165858
C     -4.964244    0.656742   -0.305998
O     -3.580202   -1.828178    0.743809
C     -1.076172    0.590159   -0.389961
C     -1.364724    0.931031   -1.882703
O     -0.306520    0.787062   -2.716338
O     -2.452914    1.227737   -2.356643
N      0.320204    0.308529   -0.141578
C      1.217786    1.352954   -0.154226
C      2.660713    1.055393   -0.119018
C      3.409413    1.469282    0.983948
C      4.775642    1.190986    1.033228
C      5.399989    0.511443   -0.023447
C      6.878785    0.223712    0.028704
C      7.698622    1.370681   -0.543033
C      4.641701    0.133998   -1.142527
C      3.273885    0.408531   -1.194912
O      0.864121    2.529950   -0.188583
H      2.842075   -2.631841    0.256938
H      4.082503   -3.192002    2.310610
H      3.290270   -2.383186    4.512946
H      1.235094   -1.001232    4.660195
H     -0.021532   -0.417022    2.620826
H      1.149858   -1.443066   -0.874163
H     -1.066212   -2.347721    0.899062
H      0.241943   -4.249211   -0.213762
H      0.108836   -5.870982   -2.058610
H     -1.229515   -5.355880   -4.084972
H     -2.457737   -3.206381   -4.241678
H     -2.352361   -1.577473   -2.418606
H     -2.823984    1.193353    2.301244
H     -4.227333    3.207919    2.532419
H     -7.417167    3.681386    0.843234
H     -6.296859    4.350224    2.012269
H     -6.615477    5.908401    0.108740
H     -6.055191    4.679735   -1.037635
H     -4.930766    5.358083    0.154260
H     -6.589452    1.949160   -0.855345
H     -5.172114   -0.059002   -1.095766
H     -1.388686    1.447244    0.209608
H     -0.664889    1.038044   -3.592755
H      2.929321    1.996644    1.803715
H      5.350405    1.509101    1.901041
H      7.178645    0.032829    1.066907
H      7.097193   -0.699513   -0.524013
H      7.449760    1.554211   -1.594921
H      8.767189    1.137621   -0.480582
H      7.522403    2.300537    0.010675
H      5.116474   -0.371123   -1.981008
H      2.694613    0.127567   -2.071488
