
  xtb     03162221433D
 xtb: 6.3.3 (4ae9cef)
 60 64  0     0  0            999 V2000
   -2.7994   -2.3008   -0.2213 C   0  0  0  0  0  0  0  0  0  0  0  0
   -3.7610   -3.0830   -0.8385 C   0  0  0  0  0  0  0  0  0  0  0  0
   -3.4050   -4.2701   -1.4533 C   0  0  0  0  0  0  0  0  0  0  0  0
   -2.0829   -4.6820   -1.4321 C   0  0  0  0  0  0  0  0  0  0  0  0
   -1.1211   -3.9000   -0.8194 C   0  0  0  0  0  0  0  0  0  0  0  0
   -1.4675   -2.6918   -0.2249 C   0  0  0  0  0  0  0  0  0  0  0  0
   -0.4000   -1.8557    0.4412 C   0  0  0  0  0  0  0  0  0  0  0  0
    0.8433   -1.6063   -0.4544 C   0  0  0  0  0  0  0  0  0  0  0  0
    2.1349   -1.8286    0.2900 C   0  0  0  0  0  0  0  0  0  0  0  0
    2.4871   -0.9857    1.3370 C   0  0  0  0  0  0  0  0  0  0  0  0
    3.6616   -1.1930    2.0359 C   0  0  0  0  0  0  0  0  0  0  0  0
    4.4951   -2.2449    1.6956 C   0  0  0  0  0  0  0  0  0  0  0  0
    4.1506   -3.0859    0.6520 C   0  0  0  0  0  0  0  0  0  0  0  0
    2.9754   -2.8784   -0.0482 C   0  0  0  0  0  0  0  0  0  0  0  0
    0.7043   -0.2054   -0.8368 N   0  0  0  0  0  0  0  0  0  0  0  0
    1.5834    0.4160   -1.6618 C   0  0  0  0  0  0  0  0  0  0  0  0
    1.2514    1.8647   -1.8815 C   0  0  0  0  0  0  0  0  0  0  0  0
    1.4726    2.7931   -0.8695 C   0  0  0  0  0  0  0  0  0  0  0  0
    1.1400    4.1215   -1.0674 C   0  0  0  0  0  0  0  0  0  0  0  0
    0.5843    4.5338   -2.2665 C   0  0  0  0  0  0  0  0  0  0  0  0
    0.3817    3.6043   -3.2745 C   0  0  0  0  0  0  0  0  0  0  0  0
   -0.3051    4.1075   -4.7749 Cl  0  0  0  0  0  0  0  0  0  0  0  0
    0.7153    2.2708   -3.0937 C   0  0  0  0  0  0  0  0  0  0  0  0
    2.5371   -0.1449   -2.1498 O   0  0  0  0  0  0  0  0  0  0  0  0
   -0.5263    0.3480   -0.3355 C   0  0  0  0  0  0  0  0  0  0  0  0
   -1.6532    0.3069   -1.3947 C   0  0  0  0  0  0  0  0  0  0  0  0
   -1.3024   -0.3607   -2.4833 O   0  0  0  0  0  0  0  0  0  0  0  0
   -2.7207    0.8305   -1.2403 O   0  0  0  0  0  0  0  0  0  0  0  0
   -0.8566   -0.5120    0.7693 N   0  0  0  0  0  0  0  0  0  0  0  0
   -1.0047   -0.1387    2.0783 C   0  0  0  0  0  0  0  0  0  0  0  0
   -1.1407    1.3244    2.3398 C   0  0  0  0  0  0  0  0  0  0  0  0
   -2.0082    2.1442    1.6253 C   0  0  0  0  0  0  0  0  0  0  0  0
   -2.0521    3.4977    1.9199 C   0  0  0  0  0  0  0  0  0  0  0  0
   -3.1025    4.5209    1.0083 Cl  0  0  0  0  0  0  0  0  0  0  0  0
   -1.2601    4.0422    2.9192 C   0  0  0  0  0  0  0  0  0  0  0  0
   -0.4215    3.2128    3.6441 C   0  0  0  0  0  0  0  0  0  0  0  0
   -0.3621    1.8602    3.3621 C   0  0  0  0  0  0  0  0  0  0  0  0
   -0.9979   -0.9606    2.9688 O   0  0  0  0  0  0  0  0  0  0  0  0
   -3.0936   -1.3881    0.2742 H   0  0  0  0  0  0  0  0  0  0  0  0
   -4.7919   -2.7619   -0.8323 H   0  0  0  0  0  0  0  0  0  0  0  0
   -4.1554   -4.8787   -1.9350 H   0  0  0  0  0  0  0  0  0  0  0  0
   -1.8001   -5.6179   -1.8906 H   0  0  0  0  0  0  0  0  0  0  0  0
   -0.0956   -4.2374   -0.7892 H   0  0  0  0  0  0  0  0  0  0  0  0
   -0.1113   -2.3414    1.3822 H   0  0  0  0  0  0  0  0  0  0  0  0
    0.8202   -2.2276   -1.3557 H   0  0  0  0  0  0  0  0  0  0  0  0
    1.8405   -0.1617    1.6063 H   0  0  0  0  0  0  0  0  0  0  0  0
    3.9276   -0.5318    2.8474 H   0  0  0  0  0  0  0  0  0  0  0  0
    5.4133   -2.4053    2.2407 H   0  0  0  0  0  0  0  0  0  0  0  0
    4.8008   -3.9035    0.3787 H   0  0  0  0  0  0  0  0  0  0  0  0
    2.7148   -3.5289   -0.8700 H   0  0  0  0  0  0  0  0  0  0  0  0
    1.9127    2.4747    0.0645 H   0  0  0  0  0  0  0  0  0  0  0  0
    1.3093    4.8419   -0.2819 H   0  0  0  0  0  0  0  0  0  0  0  0
    0.3141    5.5661   -2.4221 H   0  0  0  0  0  0  0  0  0  0  0  0
    0.5625    1.5540   -3.8853 H   0  0  0  0  0  0  0  0  0  0  0  0
   -0.4177    1.3907   -0.0145 H   0  0  0  0  0  0  0  0  0  0  0  0
   -2.0290   -0.3866   -3.1279 H   0  0  0  0  0  0  0  0  0  0  0  0
   -2.6498    1.7423    0.8564 H   0  0  0  0  0  0  0  0  0  0  0  0
   -1.3098    5.0988    3.1295 H   0  0  0  0  0  0  0  0  0  0  0  0
    0.1875    3.6265    4.4332 H   0  0  0  0  0  0  0  0  0  0  0  0
    0.2840    1.2049    3.9262 H   0  0  0  0  0  0  0  0  0  0  0  0
  1  2  4  0  0  0  0
  2  3  4  0  0  0  0
  3  4  4  0  0  0  0
  4  5  4  0  0  0  0
  1  6  4  0  0  0  0
  5  6  4  0  0  0  0
  6  7  1  0  0  0  0
  7  8  1  0  0  0  0
  8  9  1  0  0  0  0
  9 10  4  0  0  0  0
 10 11  4  0  0  0  0
 11 12  4  0  0  0  0
 12 13  4  0  0  0  0
  9 14  4  0  0  0  0
 13 14  4  0  0  0  0
  8 15  1  0  0  0  0
 15 16  4  0  0  0  0
 16 17  1  0  0  0  0
 17 18  4  0  0  0  0
 18 19  4  0  0  0  0
 19 20  4  0  0  0  0
 20 21  4  0  0  0  0
 21 22  1  0  0  0  0
 17 23  4  0  0  0  0
 21 23  4  0  0  0  0
 16 24  2  0  0  0  0
 15 25  1  0  0  0  0
 25 26  1  0  0  0  0
 26 27  1  0  0  0  0
 26 28  2  0  0  0  0
  7 29  1  0  0  0  0
 25 29  1  0  0  0  0
 29 30  1  0  0  0  0
 30 31  1  0  0  0  0
 31 32  4  0  0  0  0
 32 33  4  0  0  0  0
 33 34  1  0  0  0  0
 33 35  4  0  0  0  0
 35 36  4  0  0  0  0
 31 37  4  0  0  0  0
 36 37  4  0  0  0  0
 30 38  2  0  0  0  0
  1 39  1  0  0  0  0
  2 40  1  0  0  0  0
  3 41  1  0  0  0  0
  4 42  1  0  0  0  0
  5 43  1  0  0  0  0
  7 44  1  0  0  0  0
  8 45  1  0  0  0  0
 10 46  1  0  0  0  0
 11 47  1  0  0  0  0
 12 48  1  0  0  0  0
 13 49  1  0  0  0  0
 14 50  1  0  0  0  0
 18 51  1  0  0  0  0
 19 52  1  0  0  0  0
 20 53  1  0  0  0  0
 23 54  1  0  0  0  0
 25 55  1  0  0  0  0
 27 56  1  0  0  0  0
 32 57  1  0  0  0  0
 35 58  1  0  0  0  0
 36 59  1  0  0  0  0
 37 60  1  0  0  0  0
M  END
