
  xtb     03162223423D
 xtb: 6.3.3 (4ae9cef)
 54 58  0     0  0            999 V2000
    1.6278    3.2610   -1.1853 C   0  0  0  0  0  0  0  0  0  0  0  0
    1.8753    3.9759   -2.3438 C   0  0  0  0  0  0  0  0  0  0  0  0
    1.4489    3.4866   -3.5661 C   0  0  0  0  0  0  0  0  0  0  0  0
    0.7743    2.2789   -3.6268 C   0  0  0  0  0  0  0  0  0  0  0  0
    0.5255    1.5647   -2.4694 C   0  0  0  0  0  0  0  0  0  0  0  0
    0.9504    2.0521   -1.2396 C   0  0  0  0  0  0  0  0  0  0  0  0
    0.6687    1.2732    0.0195 C   0  0  0  0  0  0  0  0  0  0  0  0
   -0.8436    1.1795    0.3355 C   0  0  0  0  0  0  0  0  0  0  0  0
   -1.1800    1.5033    1.7723 C   0  0  0  0  0  0  0  0  0  0  0  0
   -0.7382    2.7018    2.3206 C   0  0  0  0  0  0  0  0  0  0  0  0
   -1.0357    3.0256    3.6315 C   0  0  0  0  0  0  0  0  0  0  0  0
   -1.7846    2.1585    4.4096 C   0  0  0  0  0  0  0  0  0  0  0  0
   -2.2463    0.9745    3.8630 C   0  0  0  0  0  0  0  0  0  0  0  0
   -1.9500    0.6499    2.5499 C   0  0  0  0  0  0  0  0  0  0  0  0
   -1.1902   -0.1848   -0.0335 N   0  0  0  0  0  0  0  0  0  0  0  0
   -2.2580   -0.4082   -0.8631 C   0  0  0  0  0  0  0  0  0  0  0  0
   -2.4663   -1.7839   -1.3457 C   0  0  0  0  0  0  0  0  0  0  0  0
   -3.0210   -2.0774   -2.5650 C   0  0  0  0  0  0  0  0  0  0  0  0
   -3.1470   -3.3947   -2.7249 O   0  0  0  0  0  0  0  0  0  0  0  0
   -2.6990   -3.9771   -1.5985 C   0  0  0  0  0  0  0  0  0  0  0  0
   -2.2633   -3.0457   -0.7107 C   0  0  0  0  0  0  0  0  0  0  0  0
   -3.0073    0.4974   -1.1686 O   0  0  0  0  0  0  0  0  0  0  0  0
   -0.0283   -1.0172    0.1247 C   0  0  0  0  0  0  0  0  0  0  0  0
    0.0430   -1.5733    1.5677 C   0  0  0  0  0  0  0  0  0  0  0  0
    0.8016   -0.8272    2.3560 O   0  0  0  0  0  0  0  0  0  0  0  0
   -0.5246   -2.5673    1.9285 O   0  0  0  0  0  0  0  0  0  0  0  0
    1.0708   -0.1207   -0.1391 N   0  0  0  0  0  0  0  0  0  0  0  0
    2.3875   -0.4589   -0.1645 C   0  0  0  0  0  0  0  0  0  0  0  0
    2.6457   -1.9204   -0.2301 C   0  0  0  0  0  0  0  0  0  0  0  0
    2.3045   -2.8052   -1.2140 C   0  0  0  0  0  0  0  0  0  0  0  0
    2.7606   -4.0317   -0.9270 O   0  0  0  0  0  0  0  0  0  0  0  0
    3.4008   -3.9529    0.2492 C   0  0  0  0  0  0  0  0  0  0  0  0
    3.3742   -2.6806    0.7266 C   0  0  0  0  0  0  0  0  0  0  0  0
    3.2683    0.3720   -0.1464 O   0  0  0  0  0  0  0  0  0  0  0  0
    1.9734    3.6376   -0.2339 H   0  0  0  0  0  0  0  0  0  0  0  0
    2.4070    4.9144   -2.2922 H   0  0  0  0  0  0  0  0  0  0  0  0
    1.6450    4.0426   -4.4708 H   0  0  0  0  0  0  0  0  0  0  0  0
    0.4415    1.8917   -4.5785 H   0  0  0  0  0  0  0  0  0  0  0  0
   -0.0017    0.6225   -2.5217 H   0  0  0  0  0  0  0  0  0  0  0  0
    1.2272    1.7085    0.8555 H   0  0  0  0  0  0  0  0  0  0  0  0
   -1.4210    1.8487   -0.3157 H   0  0  0  0  0  0  0  0  0  0  0  0
   -0.1688    3.3891    1.7123 H   0  0  0  0  0  0  0  0  0  0  0  0
   -0.6858    3.9594    4.0458 H   0  0  0  0  0  0  0  0  0  0  0  0
   -2.0161    2.4103    5.4337 H   0  0  0  0  0  0  0  0  0  0  0  0
   -2.8445    0.2993    4.4570 H   0  0  0  0  0  0  0  0  0  0  0  0
   -2.3308   -0.2692    2.1289 H   0  0  0  0  0  0  0  0  0  0  0  0
   -3.3324   -1.4337   -3.3633 H   0  0  0  0  0  0  0  0  0  0  0  0
   -2.7406   -5.0468   -1.5467 H   0  0  0  0  0  0  0  0  0  0  0  0
   -1.8810   -3.2239    0.2729 H   0  0  0  0  0  0  0  0  0  0  0  0
   -0.0558   -1.8689   -0.5642 H   0  0  0  0  0  0  0  0  0  0  0  0
    0.8132   -1.1709    3.2643 H   0  0  0  0  0  0  0  0  0  0  0  0
    1.7881   -2.6744   -2.1447 H   0  0  0  0  0  0  0  0  0  0  0  0
    3.8300   -4.8545    0.6380 H   0  0  0  0  0  0  0  0  0  0  0  0
    3.8086   -2.3098    1.6313 H   0  0  0  0  0  0  0  0  0  0  0  0
  1  2  4  0  0  0  0
  2  3  4  0  0  0  0
  3  4  4  0  0  0  0
  4  5  4  0  0  0  0
  1  6  4  0  0  0  0
  5  6  4  0  0  0  0
  6  7  1  0  0  0  0
  7  8  1  0  0  0  0
  8  9  1  0  0  0  0
  9 10  4  0  0  0  0
 10 11  4  0  0  0  0
 11 12  4  0  0  0  0
 12 13  4  0  0  0  0
  9 14  4  0  0  0  0
 13 14  4  0  0  0  0
  8 15  1  0  0  0  0
 15 16  1  0  0  0  0
 16 17  1  0  0  0  0
 17 18  2  0  0  0  0
 18 19  1  0  0  0  0
 19 20  1  0  0  0  0
 17 21  4  0  0  0  0
 20 21  2  0  0  0  0
 16 22  2  0  0  0  0
 15 23  1  0  0  0  0
 23 24  1  0  0  0  0
 24 25  1  0  0  0  0
 24 26  2  0  0  0  0
  7 27  1  0  0  0  0
 23 27  1  0  0  0  0
 27 28  1  0  0  0  0
 28 29  1  0  0  0  0
 29 30  2  0  0  0  0
 30 31  1  0  0  0  0
 31 32  1  0  0  0  0
 29 33  4  0  0  0  0
 32 33  2  0  0  0  0
 28 34  2  0  0  0  0
  1 35  1  0  0  0  0
  2 36  1  0  0  0  0
  3 37  1  0  0  0  0
  4 38  1  0  0  0  0
  5 39  1  0  0  0  0
  7 40  1  0  0  0  0
  8 41  1  0  0  0  0
 10 42  1  0  0  0  0
 11 43  1  0  0  0  0
 12 44  1  0  0  0  0
 13 45  1  0  0  0  0
 14 46  1  0  0  0  0
 18 47  1  0  0  0  0
 20 48  1  0  0  0  0
 21 49  1  0  0  0  0
 23 50  1  0  0  0  0
 25 51  1  0  0  0  0
 30 52  1  0  0  0  0
 32 53  1  0  0  0  0
 33 54  1  0  0  0  0
M  END
