64

C     -2.366069   -1.453078   -0.998867
O     -2.598383   -1.773574    0.311959
C     -3.382358   -2.930414    0.577513
C     -3.027264   -2.035818   -2.084148
C     -2.725507   -1.644342   -3.389856
C     -1.759545   -0.671307   -3.621924
C     -1.096902   -0.081152   -2.547608
C     -1.401913   -0.449454   -1.222698
C     -0.663002    0.176619   -0.041301
C      0.730416   -0.493025    0.118182
C      0.838765   -1.289302    1.410962
C      0.953679   -0.662865    2.662709
C      1.012754   -1.411385    3.841929
C      0.940780   -2.800324    3.794090
C      0.812482   -3.442550    2.566182
C      0.776889   -2.693348    1.386000
O      0.596874   -3.334223    0.186195
C      1.750843   -4.101979   -0.160264
N      1.706923    0.598485   -0.009677
C      3.034992    0.309974   -0.298103
C      3.995935    1.372648   -0.572559
C      5.364372    1.273135   -0.782530
C      5.852739    2.581531   -1.014638
C      4.756448    3.406322   -0.939558
C      4.626983    4.812621   -1.084071
N      4.546512    5.964675   -1.204269
O      3.630319    2.689371   -0.678540
O      3.408998   -0.865146   -0.336129
C      1.042973    1.893158   -0.078977
C      1.278722    2.751170    1.210094
O      2.366339    2.398425    1.935442
O      0.613162    3.701206    1.596920
N     -0.370862    1.606313   -0.219997
C     -1.238733    2.626442   -0.577974
C     -2.671353    2.432785   -0.436024
C     -3.725376    3.139663   -0.992652
C     -4.921478    2.539296   -0.526364
C     -4.527832    1.518968    0.306265
C     -5.271184    0.561263    1.045086
N     -5.902683   -0.215328    1.634999
O     -3.173394    1.464521    0.392045
O     -0.781369    3.675526   -1.036002
H     -4.421875   -2.779255    0.268784
H     -3.377413   -3.095544    1.659043
H     -2.952354   -3.818940    0.102632
H     -3.786724   -2.798477   -1.946198
H     -3.243810   -2.105264   -4.226964
H     -1.519582   -0.373894   -4.639508
H     -0.336911    0.669142   -2.755143
H     -1.249795    0.102427    0.880195
H      0.938293   -1.159997   -0.728234
H      0.986804    0.417699    2.742719
H      1.102550   -0.906385    4.800360
H      0.971253   -3.380763    4.712281
H      0.723946   -4.524123    2.532196
H      2.678018   -3.538328   -0.010613
H      1.777450   -5.037552    0.407374
H      1.676049   -4.354214   -1.222208
H      5.930089    0.349264   -0.761717
H      6.873479    2.880548   -1.210911
H      1.381792    2.454247   -0.953036
H      2.377515    3.056383    2.663601
H     -3.624599    3.980212   -1.667186
H     -5.937868    2.817312   -0.769307
