
  xtb     03162222123D
 xtb: 6.3.3 (4ae9cef)
 64 68  0     0  0            999 V2000
   -2.2053   -1.5013   -0.6838 C   0  0  0  0  0  0  0  0  0  0  0  0
   -2.1885   -1.8060    0.6395 O   0  0  0  0  0  0  0  0  0  0  0  0
   -3.0366   -2.8276    1.1119 C   0  0  0  0  0  0  0  0  0  0  0  0
   -2.9973   -2.1371   -1.6324 C   0  0  0  0  0  0  0  0  0  0  0  0
   -2.9456   -1.7458   -2.9600 C   0  0  0  0  0  0  0  0  0  0  0  0
   -2.1051   -0.7252   -3.3615 C   0  0  0  0  0  0  0  0  0  0  0  0
   -1.3149   -0.0855   -2.4208 C   0  0  0  0  0  0  0  0  0  0  0  0
   -1.3633   -0.4527   -1.0883 C   0  0  0  0  0  0  0  0  0  0  0  0
   -0.5105    0.2317   -0.0511 C   0  0  0  0  0  0  0  0  0  0  0  0
    0.8969   -0.4032   -0.0093 C   0  0  0  0  0  0  0  0  0  0  0  0
    1.0607   -1.3015    1.1877 C   0  0  0  0  0  0  0  0  0  0  0  0
    1.3297   -0.7947    2.4457 C   0  0  0  0  0  0  0  0  0  0  0  0
    1.4543   -1.6372    3.5372 C   0  0  0  0  0  0  0  0  0  0  0  0
    1.2978   -2.9986    3.3654 C   0  0  0  0  0  0  0  0  0  0  0  0
    1.0102   -3.5224    2.1161 C   0  0  0  0  0  0  0  0  0  0  0  0
    0.8846   -2.6821    1.0173 C   0  0  0  0  0  0  0  0  0  0  0  0
    0.5809   -3.1004   -0.2439 O   0  0  0  0  0  0  0  0  0  0  0  0
    0.4385   -4.4789   -0.4815 C   0  0  0  0  0  0  0  0  0  0  0  0
    1.8167    0.7277   -0.0382 N   0  0  0  0  0  0  0  0  0  0  0  0
    3.1522    0.4986   -0.0241 C   0  0  0  0  0  0  0  0  0  0  0  0
    4.0553    1.6628   -0.1748 C   0  0  0  0  0  0  0  0  0  0  0  0
    5.3252    1.7926    0.3378 C   0  0  0  0  0  0  0  0  0  0  0  0
    5.8129    3.0276   -0.1190 C   0  0  0  0  0  0  0  0  0  0  0  0
    4.8094    3.5617   -0.8979 C   0  0  0  0  0  0  0  0  0  0  0  0
    4.7858    4.7736   -1.6054 C   0  0  0  0  0  0  0  0  0  0  0  0
    4.8026    5.7721   -2.1687 N   0  0  0  0  0  0  0  0  0  0  0  0
    3.7471    2.7302   -0.9297 O   0  0  0  0  0  0  0  0  0  0  0  0
    3.6130   -0.6183    0.1122 O   0  0  0  0  0  0  0  0  0  0  0  0
    1.1262    1.9877   -0.1161 C   0  0  0  0  0  0  0  0  0  0  0  0
    1.2304    2.7702    1.2161 C   0  0  0  0  0  0  0  0  0  0  0  0
    2.2550    3.6123    1.2245 O   0  0  0  0  0  0  0  0  0  0  0  0
    0.4865    2.6052    2.1399 O   0  0  0  0  0  0  0  0  0  0  0  0
   -0.2553    1.6319   -0.3343 N   0  0  0  0  0  0  0  0  0  0  0  0
   -1.1272    2.6585   -0.4888 C   0  0  0  0  0  0  0  0  0  0  0  0
   -2.5646    2.3459   -0.5642 C   0  0  0  0  0  0  0  0  0  0  0  0
   -3.5601    3.1104   -1.1330 C   0  0  0  0  0  0  0  0  0  0  0  0
   -4.7530    2.3898   -0.9713 C   0  0  0  0  0  0  0  0  0  0  0  0
   -4.4045    1.2366   -0.2993 C   0  0  0  0  0  0  0  0  0  0  0  0
   -5.1827    0.1379    0.0919 C   0  0  0  0  0  0  0  0  0  0  0  0
   -5.8128   -0.7723    0.3933 N   0  0  0  0  0  0  0  0  0  0  0  0
   -3.0809    1.2224   -0.0495 O   0  0  0  0  0  0  0  0  0  0  0  0
   -0.7275    3.8049   -0.6108 O   0  0  0  0  0  0  0  0  0  0  0  0
   -4.0906   -2.5751    0.9603 H   0  0  0  0  0  0  0  0  0  0  0  0
   -2.8305   -2.9026    2.1785 H   0  0  0  0  0  0  0  0  0  0  0  0
   -2.8141   -3.7857    0.6322 H   0  0  0  0  0  0  0  0  0  0  0  0
   -3.6671   -2.9309   -1.3444 H   0  0  0  0  0  0  0  0  0  0  0  0
   -3.5720   -2.2478   -3.6819 H   0  0  0  0  0  0  0  0  0  0  0  0
   -2.0640   -0.4249   -4.3969 H   0  0  0  0  0  0  0  0  0  0  0  0
   -0.6608    0.7199   -2.7224 H   0  0  0  0  0  0  0  0  0  0  0  0
   -0.9869    0.1280    0.9318 H   0  0  0  0  0  0  0  0  0  0  0  0
    1.0713   -1.0062   -0.9090 H   0  0  0  0  0  0  0  0  0  0  0  0
    1.4400    0.2713    2.5759 H   0  0  0  0  0  0  0  0  0  0  0  0
    1.6704   -1.2304    4.5129 H   0  0  0  0  0  0  0  0  0  0  0  0
    1.3951   -3.6670    4.2080 H   0  0  0  0  0  0  0  0  0  0  0  0
    0.8877   -4.5889    2.0111 H   0  0  0  0  0  0  0  0  0  0  0  0
    1.3629   -5.0227   -0.2639 H   0  0  0  0  0  0  0  0  0  0  0  0
   -0.3819   -4.9068    0.1043 H   0  0  0  0  0  0  0  0  0  0  0  0
    0.2069   -4.5698   -1.5420 H   0  0  0  0  0  0  0  0  0  0  0  0
    5.8235    1.0815    0.9634 H   0  0  0  0  0  0  0  0  0  0  0  0
    6.7665    3.4716    0.0818 H   0  0  0  0  0  0  0  0  0  0  0  0
    1.4908    2.6343   -0.9255 H   0  0  0  0  0  0  0  0  0  0  0  0
    2.2787    4.1242    2.0506 H   0  0  0  0  0  0  0  0  0  0  0  0
   -3.4266    4.0604   -1.6072 H   0  0  0  0  0  0  0  0  0  0  0  0
   -5.7353    2.6658   -1.2963 H   0  0  0  0  0  0  0  0  0  0  0  0
  1  2  1  0  0  0  0
  2  3  1  0  0  0  0
  1  4  4  0  0  0  0
  4  5  4  0  0  0  0
  5  6  4  0  0  0  0
  6  7  4  0  0  0  0
  1  8  4  0  0  0  0
  7  8  4  0  0  0  0
  8  9  1  0  0  0  0
  9 10  1  0  0  0  0
 10 11  1  0  0  0  0
 11 12  4  0  0  0  0
 12 13  4  0  0  0  0
 13 14  4  0  0  0  0
 14 15  4  0  0  0  0
 11 16  4  0  0  0  0
 15 16  4  0  0  0  0
 16 17  1  0  0  0  0
 17 18  1  0  0  0  0
 10 19  1  0  0  0  0
 19 20  4  0  0  0  0
 20 21  1  0  0  0  0
 21 22  2  0  0  0  0
 22 23  4  0  0  0  0
 23 24  4  0  0  0  0
 24 25  1  0  0  0  0
 25 26  3  0  0  0  0
 21 27  1  0  0  0  0
 24 27  1  0  0  0  0
 20 28  2  0  0  0  0
 19 29  1  0  0  0  0
 29 30  1  0  0  0  0
 30 31  1  0  0  0  0
 30 32  2  0  0  0  0
  9 33  1  0  0  0  0
 29 33  1  0  0  0  0
 33 34  4  0  0  0  0
 34 35  1  0  0  0  0
 35 36  4  0  0  0  0
 36 37  4  0  0  0  0
 37 38  4  0  0  0  0
 38 39  1  0  0  0  0
 39 40  3  0  0  0  0
 35 41  1  0  0  0  0
 38 41  1  0  0  0  0
 34 42  2  0  0  0  0
  3 43  1  0  0  0  0
  3 44  1  0  0  0  0
  3 45  1  0  0  0  0
  4 46  1  0  0  0  0
  5 47  1  0  0  0  0
  6 48  1  0  0  0  0
  7 49  1  0  0  0  0
  9 50  1  0  0  0  0
 10 51  1  0  0  0  0
 12 52  1  0  0  0  0
 13 53  1  0  0  0  0
 14 54  1  0  0  0  0
 15 55  1  0  0  0  0
 18 56  1  0  0  0  0
 18 57  1  0  0  0  0
 18 58  1  0  0  0  0
 22 59  1  0  0  0  0
 23 60  1  0  0  0  0
 29 61  1  0  0  0  0
 31 62  1  0  0  0  0
 36 63  1  0  0  0  0
 37 64  1  0  0  0  0
M  END
