
  xtb     03172201463D
 xtb: 6.3.3 (4ae9cef)
 72 78  0     0  0            999 V2000
    2.2257   -3.1603    1.5628 C   0  0  0  0  0  0  0  0  0  0  0  0
    3.1217   -4.0216    2.1673 C   0  0  0  0  0  0  0  0  0  0  0  0
    3.3587   -5.2716    1.6210 C   0  0  0  0  0  0  0  0  0  0  0  0
    2.6980   -5.6545    0.4670 C   0  0  0  0  0  0  0  0  0  0  0  0
    1.8075   -4.7893   -0.1436 C   0  0  0  0  0  0  0  0  0  0  0  0
    1.5693   -3.5349    0.3973 C   0  0  0  0  0  0  0  0  0  0  0  0
    0.5667   -2.6150   -0.2404 C   0  0  0  0  0  0  0  0  0  0  0  0
   -0.7322   -2.5226    0.5917 C   0  0  0  0  0  0  0  0  0  0  0  0
   -1.7765   -3.4966    0.1193 C   0  0  0  0  0  0  0  0  0  0  0  0
   -2.4356   -3.2951   -1.0866 C   0  0  0  0  0  0  0  0  0  0  0  0
   -3.3779   -4.2085   -1.5230 C   0  0  0  0  0  0  0  0  0  0  0  0
   -3.6597   -5.3341   -0.7676 C   0  0  0  0  0  0  0  0  0  0  0  0
   -2.9950   -5.5443    0.4279 C   0  0  0  0  0  0  0  0  0  0  0  0
   -2.0582   -4.6279    0.8711 C   0  0  0  0  0  0  0  0  0  0  0  0
   -1.1314   -1.1287    0.4383 N   0  0  0  0  0  0  0  0  0  0  0  0
   -2.3360   -0.6432    0.8440 C   0  0  0  0  0  0  0  0  0  0  0  0
   -2.5129    0.8006    0.4737 C   0  0  0  0  0  0  0  0  0  0  0  0
   -3.3448    1.1141   -0.6184 C   0  0  0  0  0  0  0  0  0  0  0  0
   -3.4462    2.4046   -1.0558 C   0  0  0  0  0  0  0  0  0  0  0  0
   -2.7129    3.4397   -0.4378 C   0  0  0  0  0  0  0  0  0  0  0  0
   -2.7469    4.7698   -0.9061 C   0  0  0  0  0  0  0  0  0  0  0  0
   -2.0055    5.7433   -0.2975 C   0  0  0  0  0  0  0  0  0  0  0  0
   -1.2017    5.4350    0.8116 C   0  0  0  0  0  0  0  0  0  0  0  0
   -1.1590    4.1599    1.2994 C   0  0  0  0  0  0  0  0  0  0  0  0
   -1.9059    3.1313    0.6886 C   0  0  0  0  0  0  0  0  0  0  0  0
   -1.8419    1.7970    1.1353 C   0  0  0  0  0  0  0  0  0  0  0  0
   -3.1624   -1.3183    1.4130 O   0  0  0  0  0  0  0  0  0  0  0  0
   -0.1017   -0.3333   -0.1817 C   0  0  0  0  0  0  0  0  0  0  0  0
   -0.5392    0.1492   -1.5810 C   0  0  0  0  0  0  0  0  0  0  0  0
   -0.3181    1.4517   -1.7354 O   0  0  0  0  0  0  0  0  0  0  0  0
   -0.9928   -0.5589   -2.4353 O   0  0  0  0  0  0  0  0  0  0  0  0
    1.0220   -1.2309   -0.2894 N   0  0  0  0  0  0  0  0  0  0  0  0
    2.2640   -0.8674   -0.7272 C   0  0  0  0  0  0  0  0  0  0  0  0
    2.4804    0.6148   -0.7134 C   0  0  0  0  0  0  0  0  0  0  0  0
    2.4252    1.3250    0.4594 C   0  0  0  0  0  0  0  0  0  0  0  0
    2.5331    2.7291    0.4605 C   0  0  0  0  0  0  0  0  0  0  0  0
    2.4294    3.4860    1.6465 C   0  0  0  0  0  0  0  0  0  0  0  0
    2.4867    4.8504    1.6096 C   0  0  0  0  0  0  0  0  0  0  0  0
    2.6588    5.5194    0.3876 C   0  0  0  0  0  0  0  0  0  0  0  0
    2.7764    4.8134   -0.7765 C   0  0  0  0  0  0  0  0  0  0  0  0
    2.7166    3.4045   -0.7743 C   0  0  0  0  0  0  0  0  0  0  0  0
    2.8346    2.6432   -1.9558 C   0  0  0  0  0  0  0  0  0  0  0  0
    2.7222    1.2821   -1.9286 C   0  0  0  0  0  0  0  0  0  0  0  0
    3.0990   -1.6716   -1.0734 O   0  0  0  0  0  0  0  0  0  0  0  0
    2.0436   -2.1841    1.9898 H   0  0  0  0  0  0  0  0  0  0  0  0
    3.6368   -3.7172    3.0666 H   0  0  0  0  0  0  0  0  0  0  0  0
    4.0594   -5.9441    2.0933 H   0  0  0  0  0  0  0  0  0  0  0  0
    2.8798   -6.6283    0.0372 H   0  0  0  0  0  0  0  0  0  0  0  0
    1.2954   -5.0868   -1.0469 H   0  0  0  0  0  0  0  0  0  0  0  0
    0.3315   -2.9625   -1.2558 H   0  0  0  0  0  0  0  0  0  0  0  0
   -0.5119   -2.7131    1.6515 H   0  0  0  0  0  0  0  0  0  0  0  0
   -2.2141   -2.4216   -1.6822 H   0  0  0  0  0  0  0  0  0  0  0  0
   -3.8934   -4.0409   -2.4573 H   0  0  0  0  0  0  0  0  0  0  0  0
   -4.3972   -6.0452   -1.1097 H   0  0  0  0  0  0  0  0  0  0  0  0
   -3.2101   -6.4210    1.0207 H   0  0  0  0  0  0  0  0  0  0  0  0
   -1.5435   -4.7901    1.8071 H   0  0  0  0  0  0  0  0  0  0  0  0
   -3.8898    0.3171   -1.1020 H   0  0  0  0  0  0  0  0  0  0  0  0
   -4.0817    2.6477   -1.8955 H   0  0  0  0  0  0  0  0  0  0  0  0
   -3.3675    5.0036   -1.7596 H   0  0  0  0  0  0  0  0  0  0  0  0
   -2.0325    6.7584   -0.6654 H   0  0  0  0  0  0  0  0  0  0  0  0
   -0.6182    6.2156    1.2765 H   0  0  0  0  0  0  0  0  0  0  0  0
   -0.5423    3.9183    2.1528 H   0  0  0  0  0  0  0  0  0  0  0  0
   -1.2382    1.5686    2.0034 H   0  0  0  0  0  0  0  0  0  0  0  0
    0.1502    0.5563    0.4073 H   0  0  0  0  0  0  0  0  0  0  0  0
   -0.5817    1.7522   -2.6211 H   0  0  0  0  0  0  0  0  0  0  0  0
    2.2916    0.8122    1.4028 H   0  0  0  0  0  0  0  0  0  0  0  0
    2.2998    2.9652    2.5850 H   0  0  0  0  0  0  0  0  0  0  0  0
    2.4011    5.4248    2.5205 H   0  0  0  0  0  0  0  0  0  0  0  0
    2.7024    6.5986    0.3770 H   0  0  0  0  0  0  0  0  0  0  0  0
    2.9157    5.3252   -1.7179 H   0  0  0  0  0  0  0  0  0  0  0  0
    3.0084    3.1585   -2.8896 H   0  0  0  0  0  0  0  0  0  0  0  0
    2.8049    0.6970   -2.8327 H   0  0  0  0  0  0  0  0  0  0  0  0
  1  2  4  0  0  0  0
  2  3  4  0  0  0  0
  3  4  4  0  0  0  0
  4  5  4  0  0  0  0
  1  6  4  0  0  0  0
  5  6  4  0  0  0  0
  6  7  1  0  0  0  0
  7  8  1  0  0  0  0
  8  9  1  0  0  0  0
  9 10  4  0  0  0  0
 10 11  4  0  0  0  0
 11 12  4  0  0  0  0
 12 13  4  0  0  0  0
  9 14  4  0  0  0  0
 13 14  4  0  0  0  0
  8 15  1  0  0  0  0
 15 16  4  0  0  0  0
 16 17  1  0  0  0  0
 17 18  4  0  0  0  0
 18 19  2  0  0  0  0
 19 20  4  0  0  0  0
 20 21  4  0  0  0  0
 21 22  2  0  0  0  0
 22 23  4  0  0  0  0
 23 24  2  0  0  0  0
 20 25  4  0  0  0  0
 24 25  4  0  0  0  0
 17 26  2  0  0  0  0
 25 26  4  0  0  0  0
 16 27  2  0  0  0  0
 15 28  1  0  0  0  0
 28 29  1  0  0  0  0
 29 30  1  0  0  0  0
 29 31  2  0  0  0  0
  7 32  1  0  0  0  0
 28 32  1  0  0  0  0
 32 33  1  0  0  0  0
 33 34  1  0  0  0  0
 34 35  2  0  0  0  0
 35 36  4  0  0  0  0
 36 37  4  0  0  0  0
 37 38  2  0  0  0  0
 38 39  4  0  0  0  0
 39 40  2  0  0  0  0
 36 41  4  0  0  0  0
 40 41  4  0  0  0  0
 41 42  4  0  0  0  0
 34 43  4  0  0  0  0
 42 43  2  0  0  0  0
 33 44  2  0  0  0  0
  1 45  1  0  0  0  0
  2 46  1  0  0  0  0
  3 47  1  0  0  0  0
  4 48  1  0  0  0  0
  5 49  1  0  0  0  0
  7 50  1  0  0  0  0
  8 51  1  0  0  0  0
 10 52  1  0  0  0  0
 11 53  1  0  0  0  0
 12 54  1  0  0  0  0
 13 55  1  0  0  0  0
 14 56  1  0  0  0  0
 18 57  1  0  0  0  0
 19 58  1  0  0  0  0
 21 59  1  0  0  0  0
 22 60  1  0  0  0  0
 23 61  1  0  0  0  0
 24 62  1  0  0  0  0
 26 63  1  0  0  0  0
 28 64  1  0  0  0  0
 30 65  1  0  0  0  0
 35 66  1  0  0  0  0
 37 67  1  0  0  0  0
 38 68  1  0  0  0  0
 39 69  1  0  0  0  0
 40 70  1  0  0  0  0
 42 71  1  0  0  0  0
 43 72  1  0  0  0  0
M  END
