60

C      1.290903   -3.739505    0.898049
C      1.860573   -4.565416    1.870232
C      2.074169   -4.079201    3.156804
C      1.720445   -2.768064    3.469183
C      1.149442   -1.942031    2.498979
C      0.931500   -2.412907    1.196723
C      0.308832   -1.539925    0.121878
C     -1.170600   -1.175489    0.400582
C     -2.109165   -2.065830   -0.402481
C     -2.955477   -2.961656    0.267490
C     -3.812694   -3.799696   -0.446644
C     -3.833870   -3.755505   -1.837895
C     -2.999225   -2.870704   -2.520024
C     -2.143518   -2.029632   -1.808104
N     -1.263991    0.234454    0.021044
C     -2.449471    0.937571    0.146940
C     -2.506274    2.302017   -0.416789
C     -2.222443    2.518767   -1.769776
C     -2.294140    3.812810   -2.291740
C     -2.664477    4.875037   -1.464169
Cl    -2.757057    6.468245   -2.113759
C     -2.965996    4.655153   -0.120463
C     -2.895051    3.362606    0.405222
O     -3.455295    0.502079    0.695441
C      0.055467    0.844861   -0.044217
C      0.295249    1.769549    1.188390
O      0.589944    3.057575    0.864701
O      0.239671    1.405400    2.356073
N      1.013998   -0.259002   -0.014153
C      2.117933   -0.196636   -0.852003
C      3.110386    0.875961   -0.576175
C      3.764456    1.487651   -1.653349
C      4.729849    2.473248   -1.414723
C      5.045680    2.835378   -0.103292
Cl     6.237482    4.046798    0.191212
C      4.407566    2.216105    0.974447
C      3.448239    1.226037    0.739153
O      2.293119   -0.956514   -1.799679
H      1.132136   -4.139765   -0.102592
H      2.138921   -5.588594    1.623501
H      2.515671   -4.719773    3.915260
H      1.890971   -2.390755    4.474428
H      0.876783   -0.927554    2.776588
H      0.403337   -2.060926   -0.837725
H     -1.414861   -1.229504    1.468919
H     -2.963183   -3.007006    1.354323
H     -4.469464   -4.482835    0.086273
H     -4.503466   -4.408140   -2.391974
H     -3.015538   -2.837115   -3.607959
H     -1.500178   -1.349298   -2.362429
H     -1.983632    1.683488   -2.422704
H     -2.087688    3.986052   -3.344747
H     -3.267073    5.482174    0.519005
H     -3.148534    3.181737    1.447608
H      0.158812    1.406362   -0.978537
H      0.615863    3.275972   -0.088717
H      3.539399    1.184074   -2.674738
H      5.237889    2.945654   -2.252549
H      4.667315    2.484984    1.995167
H      2.990364    0.721181    1.590487
