68

C     -2.190984    2.935447    0.935026
O     -2.239280    3.577061   -0.275420
C     -3.580309    3.820081   -0.702474
C     -2.767931    3.512176    2.070825
C     -2.673750    2.872837    3.304769
C     -1.989203    1.665794    3.408952
C     -1.394039    1.099941    2.280144
C     -1.483123    1.726050    1.022593
C     -0.823873    1.118307   -0.213604
C      0.719986    1.020545   -0.037506
C      1.518584    1.571515   -1.219020
C      1.160674    1.295931   -2.551981
C      1.907480    1.790584   -3.624386
C      3.022752    2.584116   -3.388906
C      3.387309    2.890136   -2.080712
C      2.650533    2.381907   -1.003250
O      2.953860    2.734369    0.286985
C      4.338631    2.604261    0.605734
N      0.950461   -0.418709    0.187153
C      2.069518   -0.878479    0.849532
C      2.147252   -2.294079    1.156695
C      3.184011   -3.110811    0.733995
C      4.380272   -2.853466   -0.107565
F      4.173043   -1.867176   -1.019131
F      4.763797   -3.951944   -0.812681
F      5.453344   -2.479420    0.637842
O      3.004701   -4.378467    1.219294
C      1.874598   -4.365029    1.969242
C      1.317124   -3.108900    1.977699
O      2.991303   -0.149376    1.195461
C     -0.162425   -1.210129   -0.312275
C      0.283868   -1.893073   -1.643565
O     -0.506277   -1.645054   -2.709467
O      1.258441   -2.616354   -1.787981
N     -1.267054   -0.268116   -0.433912
C     -2.575291   -0.555621   -0.760926
C     -2.976768   -1.948339   -0.718144
C     -3.257118   -2.667131    0.433119
C     -3.236861   -2.306691    1.871395
F     -3.740683   -3.278560    2.672824
F     -3.939134   -1.177007    2.128179
F     -1.962674   -2.081758    2.294143
O     -3.620409   -3.944928    0.103736
C     -3.639058   -4.021417   -1.250739
C     -3.276493   -2.817435   -1.803696
O     -3.391816    0.304720   -1.069268
H     -3.561612    3.979346   -1.784669
H     -3.971341    4.728885   -0.236083
H     -4.239425    2.969537   -0.498425
H     -3.276929    4.469059    2.006570
H     -3.123466    3.322938    4.185887
H     -1.908903    1.169122    4.372276
H     -0.849383    0.167188    2.399191
H     -1.103126    1.691518   -1.103290
H      1.027573    1.548522    0.872406
H      0.276102    0.713182   -2.786544
H      1.607081    1.567384   -4.644846
H      3.597173    2.981817   -4.220922
H      4.235168    3.547034   -1.914036
H      4.787472    1.714957    0.149573
H      4.423723    2.505369    1.691938
H      4.882915    3.505686    0.308691
H      1.613760   -5.304916    2.437437
H      0.436739   -2.813376    2.531412
H     -0.445201   -2.001653    0.380460
H     -0.058272   -2.118497   -3.444476
H     -3.939721   -4.975897   -1.662226
H     -3.227314   -2.585517   -2.859056
