80

C      0.926441   -3.438839    1.850859
O      0.049978   -3.992915    0.952831
C      0.750314   -4.854761    0.047329
C      1.323010   -4.199004    2.954010
C      2.177244   -3.646073    3.902377
C      2.620974   -2.333296    3.746944
C      2.211430   -1.573320    2.646322
C      1.344064   -2.106525    1.680245
C      0.812664   -1.300711    0.500986
C     -0.601527   -0.728140    0.790347
C     -1.631630   -1.203091   -0.232297
C     -2.575440   -2.164596    0.187881
C     -3.554518   -2.637985   -0.680054
C     -3.599156   -2.175513   -1.989735
C     -2.663571   -1.238656   -2.432915
C     -1.686417   -0.742454   -1.562703
O     -0.744540    0.175019   -1.942075
C     -1.068763    1.007988   -3.052129
N     -0.414500    0.737261    0.865387
C     -1.399126    1.708644    0.874764
C     -2.791587    1.340942    1.199670
C     -3.112577    0.716182    2.407087
C     -4.438490    0.380596    2.674238
C     -5.439585    0.680380    1.745247
C     -5.129775    1.332433    0.544720
C     -6.208787    1.659583   -0.457128
C     -6.212806    0.688138   -1.626659
C     -3.794471    1.665572    0.281633
O     -1.143449    2.891340    0.671961
C      0.950825    1.110577    0.487101
C      1.701362    1.795196    1.682594
O      0.989165    1.841921    2.840660
O      2.862169    2.182775    1.657120
N      1.622947   -0.138060    0.143499
C      2.690692   -0.304153   -0.719530
C      3.246714    0.876058   -1.400959
C      4.326565    1.566531   -0.854242
C      4.857396    2.675067   -1.526305
C      6.017057    3.434794   -0.936657
C      7.348110    2.763496   -1.236000
C      4.311101    3.052157   -2.762497
C      3.250174    2.335782   -3.321067
C      2.720626    1.239885   -2.642915
O      3.162385   -1.400780   -1.014345
H      0.059817   -5.118847   -0.760501
H      1.617023   -4.353157   -0.397970
H      1.059623   -5.779219    0.548853
H      0.962144   -5.216069    3.075459
H      2.494430   -4.231228    4.761777
H      3.293842   -1.895021    4.482759
H      2.593687   -0.558427    2.568164
H      0.802068   -1.959118   -0.377394
H     -0.939113   -1.022031    1.792962
H     -2.549644   -2.551895    1.205588
H     -4.278647   -3.369619   -0.337431
H     -4.359634   -2.541032   -2.671123
H     -2.717249   -0.924439   -3.469670
H     -0.349179    1.829622   -3.067544
H     -0.962989    0.454951   -3.992389
H     -2.068855    1.440265   -2.957376
H     -2.349351    0.493109    3.145727
H     -4.698682   -0.110479    3.608740
H     -6.469399    0.409160    1.971544
H     -6.063006    2.684357   -0.823555
H     -7.189165    1.646449    0.033495
H     -7.016030    0.936080   -2.328870
H     -6.366991   -0.342899   -1.282303
H     -5.266808    0.721573   -2.177735
H     -3.527831    2.168733   -0.644369
H      0.929326    1.809657   -0.354191
H      0.091893    1.489180    2.695328
H      4.746964    1.248159    0.097550
H      5.880603    3.526245    0.148252
H      6.025453    4.458760   -1.329885
H      7.505228    2.660296   -2.314830
H      8.170553    3.357067   -0.826885
H      7.399295    1.762384   -0.795978
H      4.717096    3.906102   -3.299015
H      2.846801    2.629870   -4.286140
H      1.914039    0.662013   -3.085305
