
  xtb     03162223093D
 xtb: 6.3.3 (4ae9cef)
 60 64  0     0  0            999 V2000
   -0.7453   -1.4314   -2.9699 C   0  0  0  0  0  0  0  0  0  0  0  0
   -1.3750   -1.4288   -4.2044 C   0  0  0  0  0  0  0  0  0  0  0  0
   -2.7525   -1.5213   -4.2885 C   0  0  0  0  0  0  0  0  0  0  0  0
   -3.5059   -1.6203   -3.1295 C   0  0  0  0  0  0  0  0  0  0  0  0
   -2.8799   -1.6273   -1.8978 C   0  0  0  0  0  0  0  0  0  0  0  0
   -1.4938   -1.5337   -1.8056 C   0  0  0  0  0  0  0  0  0  0  0  0
   -0.9015   -1.4854   -0.4169 C   0  0  0  0  0  0  0  0  0  0  0  0
    0.6338   -1.5114   -0.3169 C   0  0  0  0  0  0  0  0  0  0  0  0
    1.0525   -2.0853    1.0170 C   0  0  0  0  0  0  0  0  0  0  0  0
    1.1529   -3.4640    1.1556 C   0  0  0  0  0  0  0  0  0  0  0  0
    1.4860   -4.0236    2.3747 C   0  0  0  0  0  0  0  0  0  0  0  0
    1.7262   -3.2102    3.4695 C   0  0  0  0  0  0  0  0  0  0  0  0
    1.6309   -1.8368    3.3366 C   0  0  0  0  0  0  0  0  0  0  0  0
    1.2901   -1.2758    2.1179 C   0  0  0  0  0  0  0  0  0  0  0  0
    0.9824   -0.1013   -0.4369 N   0  0  0  0  0  0  0  0  0  0  0  0
    2.2244    0.2873   -0.8373 C   0  0  0  0  0  0  0  0  0  0  0  0
    2.4800    1.7440   -0.8098 C   0  0  0  0  0  0  0  0  0  0  0  0
    2.3347    2.6165    0.2313 C   0  0  0  0  0  0  0  0  0  0  0  0
    2.7587    3.8407   -0.1110 O   0  0  0  0  0  0  0  0  0  0  0  0
    3.1826    3.7665   -1.3893 C   0  0  0  0  0  0  0  0  0  0  0  0
    3.0531    2.5031   -1.8783 C   0  0  0  0  0  0  0  0  0  0  0  0
    3.3804    1.9839   -3.2290 C   0  0  0  0  0  0  0  0  0  0  0  0
    3.0676   -0.5260   -1.1527 O   0  0  0  0  0  0  0  0  0  0  0  0
   -0.2001    0.7234   -0.3003 C   0  0  0  0  0  0  0  0  0  0  0  0
   -0.6054    1.3194   -1.6654 C   0  0  0  0  0  0  0  0  0  0  0  0
   -1.8799    1.7022   -1.6682 O   0  0  0  0  0  0  0  0  0  0  0  0
    0.1344    1.4589   -2.5959 O   0  0  0  0  0  0  0  0  0  0  0  0
   -1.2013   -0.1843    0.1812 N   0  0  0  0  0  0  0  0  0  0  0  0
   -1.9007   -0.1057    1.3529 C   0  0  0  0  0  0  0  0  0  0  0  0
   -1.9109    1.2106    2.0180 C   0  0  0  0  0  0  0  0  0  0  0  0
   -2.1225    2.4516    1.4813 C   0  0  0  0  0  0  0  0  0  0  0  0
   -2.1211    3.3870    2.4366 O   0  0  0  0  0  0  0  0  0  0  0  0
   -1.9023    2.7576    3.6091 C   0  0  0  0  0  0  0  0  0  0  0  0
   -1.7758    1.4139    3.4300 C   0  0  0  0  0  0  0  0  0  0  0  0
   -1.5278    0.3606    4.4472 C   0  0  0  0  0  0  0  0  0  0  0  0
   -2.4981   -1.0666    1.7922 O   0  0  0  0  0  0  0  0  0  0  0  0
    0.3292   -1.3409   -2.9362 H   0  0  0  0  0  0  0  0  0  0  0  0
   -0.7810   -1.3481   -5.1023 H   0  0  0  0  0  0  0  0  0  0  0  0
   -3.2385   -1.5169   -5.2530 H   0  0  0  0  0  0  0  0  0  0  0  0
   -4.5817   -1.6942   -3.1866 H   0  0  0  0  0  0  0  0  0  0  0  0
   -3.4613   -1.7012   -0.9906 H   0  0  0  0  0  0  0  0  0  0  0  0
   -1.3623   -2.2538    0.2118 H   0  0  0  0  0  0  0  0  0  0  0  0
    1.1076   -2.0843   -1.1178 H   0  0  0  0  0  0  0  0  0  0  0  0
    0.9694   -4.0982    0.3003 H   0  0  0  0  0  0  0  0  0  0  0  0
    1.5621   -5.0965    2.4706 H   0  0  0  0  0  0  0  0  0  0  0  0
    1.9887   -3.6455    4.4221 H   0  0  0  0  0  0  0  0  0  0  0  0
    1.8246   -1.1978    4.1862 H   0  0  0  0  0  0  0  0  0  0  0  0
    1.2246   -0.2012    2.0230 H   0  0  0  0  0  0  0  0  0  0  0  0
    1.9976    2.4840    1.2415 H   0  0  0  0  0  0  0  0  0  0  0  0
    3.5574    4.6669   -1.8333 H   0  0  0  0  0  0  0  0  0  0  0  0
    3.9293    2.7255   -3.8027 H   0  0  0  0  0  0  0  0  0  0  0  0
    3.9730    1.0762   -3.1383 H   0  0  0  0  0  0  0  0  0  0  0  0
    2.4585    1.7328   -3.7514 H   0  0  0  0  0  0  0  0  0  0  0  0
   -0.0578    1.5642    0.3905 H   0  0  0  0  0  0  0  0  0  0  0  0
   -2.1327    2.0509   -2.5393 H   0  0  0  0  0  0  0  0  0  0  0  0
   -2.3244    2.7623    0.4755 H   0  0  0  0  0  0  0  0  0  0  0  0
   -1.8664    3.3634    4.4923 H   0  0  0  0  0  0  0  0  0  0  0  0
   -1.7063    0.7477    5.4466 H   0  0  0  0  0  0  0  0  0  0  0  0
   -2.1808   -0.4883    4.2590 H   0  0  0  0  0  0  0  0  0  0  0  0
   -0.4997    0.0050    4.3842 H   0  0  0  0  0  0  0  0  0  0  0  0
  1  2  4  0  0  0  0
  2  3  4  0  0  0  0
  3  4  4  0  0  0  0
  4  5  4  0  0  0  0
  1  6  4  0  0  0  0
  5  6  4  0  0  0  0
  6  7  1  0  0  0  0
  7  8  1  0  0  0  0
  8  9  1  0  0  0  0
  9 10  4  0  0  0  0
 10 11  4  0  0  0  0
 11 12  4  0  0  0  0
 12 13  4  0  0  0  0
  9 14  4  0  0  0  0
 13 14  4  0  0  0  0
  8 15  1  0  0  0  0
 15 16  1  0  0  0  0
 16 17  1  0  0  0  0
 17 18  2  0  0  0  0
 18 19  1  0  0  0  0
 19 20  1  0  0  0  0
 17 21  4  0  0  0  0
 20 21  2  0  0  0  0
 21 22  1  0  0  0  0
 16 23  2  0  0  0  0
 15 24  1  0  0  0  0
 24 25  1  0  0  0  0
 25 26  1  0  0  0  0
 25 27  2  0  0  0  0
  7 28  1  0  0  0  0
 24 28  1  0  0  0  0
 28 29  1  0  0  0  0
 29 30  1  0  0  0  0
 30 31  2  0  0  0  0
 31 32  1  0  0  0  0
 32 33  1  0  0  0  0
 30 34  4  0  0  0  0
 33 34  2  0  0  0  0
 34 35  1  0  0  0  0
 29 36  2  0  0  0  0
  1 37  1  0  0  0  0
  2 38  1  0  0  0  0
  3 39  1  0  0  0  0
  4 40  1  0  0  0  0
  5 41  1  0  0  0  0
  7 42  1  0  0  0  0
  8 43  1  0  0  0  0
 10 44  1  0  0  0  0
 11 45  1  0  0  0  0
 12 46  1  0  0  0  0
 13 47  1  0  0  0  0
 14 48  1  0  0  0  0
 18 49  1  0  0  0  0
 20 50  1  0  0  0  0
 22 51  1  0  0  0  0
 22 52  1  0  0  0  0
 22 53  1  0  0  0  0
 24 54  1  0  0  0  0
 26 55  1  0  0  0  0
 31 56  1  0  0  0  0
 33 57  1  0  0  0  0
 35 58  1  0  0  0  0
 35 59  1  0  0  0  0
 35 60  1  0  0  0  0
M  END
