
  xtb     03172200343D
 xtb: 6.3.3 (4ae9cef)
 66 70  0     0  0            999 V2000
   -3.4978    1.5862   -0.5907 C   0  0  0  0  0  0  0  0  0  0  0  0
   -4.1393    1.2134    0.7158 C   0  0  0  0  0  0  0  0  0  0  0  0
   -5.4108    1.6124    0.8128 F   0  0  0  0  0  0  0  0  0  0  0  0
   -3.5091    1.7249    1.7921 F   0  0  0  0  0  0  0  0  0  0  0  0
   -4.1576   -0.1252    0.9194 F   0  0  0  0  0  0  0  0  0  0  0  0
   -4.2546    2.2665   -1.5361 C   0  0  0  0  0  0  0  0  0  0  0  0
   -3.7024    2.6055   -2.7561 C   0  0  0  0  0  0  0  0  0  0  0  0
   -2.3926    2.2589   -3.0387 C   0  0  0  0  0  0  0  0  0  0  0  0
   -1.6410    1.5786   -2.1013 C   0  0  0  0  0  0  0  0  0  0  0  0
   -2.1745    1.2409   -0.8629 C   0  0  0  0  0  0  0  0  0  0  0  0
   -1.3157    0.4744    0.1105 C   0  0  0  0  0  0  0  0  0  0  0  0
   -0.9646   -0.9320   -0.4265 C   0  0  0  0  0  0  0  0  0  0  0  0
   -1.7248   -2.0209    0.2943 C   0  0  0  0  0  0  0  0  0  0  0  0
   -2.7863   -2.7129   -0.2916 C   0  0  0  0  0  0  0  0  0  0  0  0
   -3.2390   -2.4121   -1.6937 C   0  0  0  0  0  0  0  0  0  0  0  0
   -2.2970   -2.6137   -2.6298 F   0  0  0  0  0  0  0  0  0  0  0  0
   -4.2924   -3.1465   -2.0720 F   0  0  0  0  0  0  0  0  0  0  0  0
   -3.6258   -1.1229   -1.8467 F   0  0  0  0  0  0  0  0  0  0  0  0
   -3.4622   -3.6964    0.4198 C   0  0  0  0  0  0  0  0  0  0  0  0
   -3.0927   -4.0001    1.7162 C   0  0  0  0  0  0  0  0  0  0  0  0
   -2.0456   -3.3171    2.3077 C   0  0  0  0  0  0  0  0  0  0  0  0
   -1.3751   -2.3368    1.6017 C   0  0  0  0  0  0  0  0  0  0  0  0
    0.4780   -1.0389   -0.2366 N   0  0  0  0  0  0  0  0  0  0  0  0
    1.0891   -2.2273   -0.5323 C   0  0  0  0  0  0  0  0  0  0  0  0
    2.5475   -2.3389   -0.4286 C   0  0  0  0  0  0  0  0  0  0  0  0
    3.1767   -3.5259   -0.1774 C   0  0  0  0  0  0  0  0  0  0  0  0
    4.5883   -3.4415   -0.1933 C   0  0  0  0  0  0  0  0  0  0  0  0
    5.4875   -4.6007    0.0753 C   0  0  0  0  0  0  0  0  0  0  0  0
    5.0091   -2.1819   -0.4893 C   0  0  0  0  0  0  0  0  0  0  0  0
    3.7101   -1.0861   -0.7271 S   0  0  0  0  0  0  0  0  0  0  0  0
    0.4170   -3.1777   -0.8857 O   0  0  0  0  0  0  0  0  0  0  0  0
    1.0270    0.1309    0.4055 C   0  0  0  0  0  0  0  0  0  0  0  0
    1.3958   -0.2104    1.8879 C   0  0  0  0  0  0  0  0  0  0  0  0
    0.7531    0.4876    2.8184 O   0  0  0  0  0  0  0  0  0  0  0  0
    2.1834   -1.0673    2.1552 O   0  0  0  0  0  0  0  0  0  0  0  0
   -0.0127    1.1149    0.3105 N   0  0  0  0  0  0  0  0  0  0  0  0
    0.0875    2.4811    0.3880 C   0  0  0  0  0  0  0  0  0  0  0  0
    1.4032    3.1121    0.5415 C   0  0  0  0  0  0  0  0  0  0  0  0
    1.5786    4.4533    0.3120 C   0  0  0  0  0  0  0  0  0  0  0  0
    2.8881    4.9127    0.5660 C   0  0  0  0  0  0  0  0  0  0  0  0
    3.3203    6.3274    0.3780 C   0  0  0  0  0  0  0  0  0  0  0  0
    3.6917    3.9046    1.0099 C   0  0  0  0  0  0  0  0  0  0  0  0
    2.8867    2.3960    1.1072 S   0  0  0  0  0  0  0  0  0  0  0  0
   -0.9146    3.1712    0.3382 O   0  0  0  0  0  0  0  0  0  0  0  0
   -5.2767    2.5282   -1.3118 H   0  0  0  0  0  0  0  0  0  0  0  0
   -4.2956    3.1362   -3.4841 H   0  0  0  0  0  0  0  0  0  0  0  0
   -1.9558    2.5158   -3.9917 H   0  0  0  0  0  0  0  0  0  0  0  0
   -0.6177    1.3125   -2.3236 H   0  0  0  0  0  0  0  0  0  0  0  0
   -1.8141    0.3757    1.0808 H   0  0  0  0  0  0  0  0  0  0  0  0
   -1.1559   -0.9874   -1.5025 H   0  0  0  0  0  0  0  0  0  0  0  0
   -4.2784   -4.2252   -0.0466 H   0  0  0  0  0  0  0  0  0  0  0  0
   -3.6212   -4.7681    2.2588 H   0  0  0  0  0  0  0  0  0  0  0  0
   -1.7462   -3.5452    3.3191 H   0  0  0  0  0  0  0  0  0  0  0  0
   -0.5502   -1.8240    2.0724 H   0  0  0  0  0  0  0  0  0  0  0  0
    2.6291   -4.4286    0.0240 H   0  0  0  0  0  0  0  0  0  0  0  0
    6.5306   -4.3032    0.0076 H   0  0  0  0  0  0  0  0  0  0  0  0
    5.2991   -5.3961   -0.6444 H   0  0  0  0  0  0  0  0  0  0  0  0
    5.2971   -4.9967    1.0716 H   0  0  0  0  0  0  0  0  0  0  0  0
    6.0147   -1.8222   -0.5848 H   0  0  0  0  0  0  0  0  0  0  0  0
    1.9414    0.4610   -0.1042 H   0  0  0  0  0  0  0  0  0  0  0  0
    0.1410    1.1476    2.4519 H   0  0  0  0  0  0  0  0  0  0  0  0
    0.7746    5.0785   -0.0322 H   0  0  0  0  0  0  0  0  0  0  0  0
    3.1869    6.6252   -0.6609 H   0  0  0  0  0  0  0  0  0  0  0  0
    2.7151    6.9883    0.9964 H   0  0  0  0  0  0  0  0  0  0  0  0
    4.3655    6.4500    0.6485 H   0  0  0  0  0  0  0  0  0  0  0  0
    4.7262    3.9569    1.2879 H   0  0  0  0  0  0  0  0  0  0  0  0
  1  2  1  0  0  0  0
  2  3  1  0  0  0  0
  2  4  1  0  0  0  0
  2  5  1  0  0  0  0
  1  6  4  0  0  0  0
  6  7  4  0  0  0  0
  7  8  4  0  0  0  0
  8  9  4  0  0  0  0
  1 10  4  0  0  0  0
  9 10  4  0  0  0  0
 10 11  1  0  0  0  0
 11 12  1  0  0  0  0
 12 13  1  0  0  0  0
 13 14  4  0  0  0  0
 14 15  1  0  0  0  0
 15 16  1  0  0  0  0
 15 17  1  0  0  0  0
 15 18  1  0  0  0  0
 14 19  4  0  0  0  0
 19 20  4  0  0  0  0
 20 21  4  0  0  0  0
 13 22  4  0  0  0  0
 21 22  4  0  0  0  0
 12 23  1  0  0  0  0
 23 24  1  0  0  0  0
 24 25  1  0  0  0  0
 25 26  2  0  0  0  0
 26 27  4  0  0  0  0
 27 28  1  0  0  0  0
 27 29  2  0  0  0  0
 25 30  1  0  0  0  0
 29 30  1  0  0  0  0
 24 31  2  0  0  0  0
 23 32  1  0  0  0  0
 32 33  1  0  0  0  0
 33 34  1  0  0  0  0
 33 35  2  0  0  0  0
 11 36  1  0  0  0  0
 32 36  1  0  0  0  0
 36 37  1  0  0  0  0
 37 38  1  0  0  0  0
 38 39  2  0  0  0  0
 39 40  4  0  0  0  0
 40 41  1  0  0  0  0
 40 42  2  0  0  0  0
 38 43  1  0  0  0  0
 42 43  1  0  0  0  0
 37 44  2  0  0  0  0
  6 45  1  0  0  0  0
  7 46  1  0  0  0  0
  8 47  1  0  0  0  0
  9 48  1  0  0  0  0
 11 49  1  0  0  0  0
 12 50  1  0  0  0  0
 19 51  1  0  0  0  0
 20 52  1  0  0  0  0
 21 53  1  0  0  0  0
 22 54  1  0  0  0  0
 26 55  1  0  0  0  0
 28 56  1  0  0  0  0
 28 57  1  0  0  0  0
 28 58  1  0  0  0  0
 29 59  1  0  0  0  0
 32 60  1  0  0  0  0
 34 61  1  0  0  0  0
 39 62  1  0  0  0  0
 41 63  1  0  0  0  0
 41 64  1  0  0  0  0
 41 65  1  0  0  0  0
 42 66  1  0  0  0  0
M  END
