72

C     -4.517139   -3.028219    0.025208
C     -4.109111   -3.534069    1.256434
C     -2.945212   -3.057840    1.839679
C     -2.194914   -2.069845    1.196022
C     -2.583609   -1.523791   -0.052419
C     -3.771269   -2.038751   -0.636395
C     -4.206778   -1.567931   -1.882076
C     -3.486720   -0.600808   -2.571990
C     -2.325342   -0.079864   -2.016402
C     -1.864478   -0.506155   -0.751943
C     -0.589459    0.116978   -0.187317
C      0.662801   -0.451543   -0.902804
C      1.199495   -1.744237   -0.292825
C      1.039254   -2.907549   -1.078085
C      1.425630   -4.158750   -0.613712
C      1.979429   -4.280601    0.652950
C      2.163222   -3.156148    1.466375
C      1.783929   -1.866412    1.003156
C      2.016259   -0.787241    1.883176
C      2.576537   -0.960805    3.151725
C      2.928619   -2.229011    3.584443
C      2.724813   -3.319254    2.743974
N      1.602742    0.667737   -0.990196
C      2.655122    0.563797   -1.894821
C      3.628540    1.661184   -1.992876
C      4.434116    1.990725   -0.906292
F      4.293819    1.362549    0.269110
C      5.395185    2.991718   -1.020720
C      5.558962    3.658094   -2.236440
C      4.768763    3.313711   -3.336163
C      3.808233    2.306705   -3.220597
O      2.813159   -0.392348   -2.649504
C      0.889282    1.936499   -0.802814
C      1.503329    2.812007    0.325101
O      2.114807    3.923746   -0.143146
O      1.482629    2.588713    1.528079
N     -0.466873    1.567767   -0.405985
C     -1.377982    2.570967   -0.136165
C     -2.609600    2.236801    0.593834
C     -2.540150    1.794220    1.919863
C     -3.716785    1.479755    2.601821
C     -4.953390    1.622587    1.967280
C     -5.017447    2.089476    0.652865
C     -3.844123    2.403099   -0.027230
F     -3.926091    2.836611   -1.293504
O     -1.168638    3.744544   -0.430352
H     -5.428554   -3.420883   -0.421399
H     -4.695248   -4.302743    1.752203
H     -2.610211   -3.455010    2.794630
H     -1.286690   -1.750375    1.698696
H     -5.115827   -1.960437   -2.333040
H     -3.834070   -0.248152   -3.539665
H     -1.785008    0.682879   -2.575304
H     -0.531484    0.000598    0.896327
H      0.398150   -0.657047   -1.951134
H      0.605808   -2.843183   -2.075477
H      1.294010   -5.036592   -1.240192
H      2.274136   -5.268589    0.999656
H      1.777595    0.226411    1.592452
H      2.742130   -0.096526    3.790049
H      3.368588   -2.370644    4.567365
H      3.014233   -4.307610    3.095278
H      6.013828    3.241874   -0.164454
H      6.310502    4.438754   -2.331285
H      4.909525    3.822791   -4.287273
H      3.211764    2.020209   -4.083680
H      0.841476    2.501649   -1.740858
H      2.385278    4.403536    0.667279
H     -1.580086    1.698600    2.421323
H     -3.671404    1.123478    3.628402
H     -5.868409    1.372365    2.499220
H     -5.973595    2.205829    0.152556
