70

C     -2.004267   -1.830118   -2.279252
C     -2.210002   -2.922523   -3.127710
C     -1.319100   -4.003943   -3.139996
C     -1.516640   -5.107017   -3.986417
C     -0.621337   -6.177615   -3.981125
C      0.483522   -6.155606   -3.134355
C      0.692801   -5.065101   -2.288684
C     -0.200463   -3.981636   -2.279929
C     -0.005907   -2.876154   -1.433271
C     -0.896594   -1.785500   -1.421527
C     -0.619062   -0.631843   -0.465013
C      0.610519    0.232892   -0.898256
C      1.697090    0.256992    0.163869
C      1.544175    0.989873    1.355331
C      2.536496    0.983838    2.348362
C      2.384008    1.715906    3.536964
C      3.378176    1.700427    4.516451
C      4.537254    0.955739    4.319328
C      4.703617    0.223820    3.141900
C      3.712413    0.228103    2.146769
C      3.866454   -0.496902    0.954915
C      2.871511   -0.482302   -0.025487
N      0.080529    1.579046   -1.133432
C      0.746770    2.348556   -2.088617
C      0.769168    3.771845   -1.810981
C      1.241106    4.839407   -2.558336
C      0.988423    6.016307   -1.806156
C      0.405827    5.584862   -0.640066
N     -0.079619    6.288069    0.505341
O      0.098971    7.513847    0.511981
O     -0.625316    5.626870    1.399526
O      0.266473    4.232541   -0.617557
O      1.328554    1.841967   -3.044492
C     -1.366427    1.465788   -1.254731
C     -2.222572    2.775676   -1.440849
O     -2.992117    3.199300   -0.423049
O     -2.144652    3.447385   -2.468830
N     -1.724625    0.341367   -0.369079
C     -2.161711    0.598012    0.932624
C     -2.625831   -0.526928    1.732062
C     -3.026590   -1.821220    1.430767
C     -3.374794   -2.451256    2.654917
C     -3.183389   -1.496233    3.621945
N     -3.364320   -1.526216    5.039328
O     -3.613013   -2.634217    5.533749
O     -3.272555   -0.456989    5.656460
O     -2.740103   -0.328783    3.088434
O     -2.193485    1.752962    1.352691
H     -2.737177   -1.026630   -2.305516
H     -3.078010   -2.922536   -3.784144
H     -2.374111   -5.141470   -4.655940
H     -0.785439   -7.026759   -4.640000
H      1.183066   -6.988174   -3.130976
H      1.567664   -5.067289   -1.640703
H      0.854636   -2.873621   -0.765023
H     -0.431301   -1.082896    0.518059
H      1.035192   -0.156067   -1.832587
H      0.647555    1.588849    1.514786
H      1.487372    2.309286    3.708983
H      3.244830    2.272151    5.431566
H      5.312755    0.943724    5.081001
H      5.618875   -0.348352    3.006278
H      4.770913   -1.077157    0.779409
H      3.032019   -1.047621   -0.941961
H      1.686220    4.764681   -3.541656
H      1.205251    7.040606   -2.078346
H     -1.516700    1.024426   -2.254474
H     -2.765464    2.793422    0.449148
H     -3.071536   -2.268271    0.446101
H     -3.725977   -3.463596    2.809475
