
  xtb     03172202183D
 xtb: 6.3.3 (4ae9cef)
 70 78  0     0  0            999 V2000
   -2.1203   -1.7401   -2.0327 C   0  0  0  0  0  0  0  0  0  0  0  0
   -2.4649   -2.7719   -2.8606 C   0  0  0  0  0  0  0  0  0  0  0  0
   -1.6064   -3.8740   -3.0455 C   0  0  0  0  0  0  0  0  0  0  0  0
   -1.9341   -4.9497   -3.8968 C   0  0  0  0  0  0  0  0  0  0  0  0
   -1.0773   -6.0036   -4.0460 C   0  0  0  0  0  0  0  0  0  0  0  0
    0.1431   -6.0313   -3.3510 C   0  0  0  0  0  0  0  0  0  0  0  0
    0.4891   -5.0050   -2.5181 C   0  0  0  0  0  0  0  0  0  0  0  0
   -0.3721   -3.9009   -2.3441 C   0  0  0  0  0  0  0  0  0  0  0  0
   -0.0450   -2.8240   -1.4977 C   0  0  0  0  0  0  0  0  0  0  0  0
   -0.8917   -1.7553   -1.3447 C   0  0  0  0  0  0  0  0  0  0  0  0
   -0.4781   -0.6263   -0.4263 C   0  0  0  0  0  0  0  0  0  0  0  0
    0.8377    0.0646   -0.8926 C   0  0  0  0  0  0  0  0  0  0  0  0
    1.8645    0.1007    0.2100 C   0  0  0  0  0  0  0  0  0  0  0  0
    1.6324    0.8460    1.3381 C   0  0  0  0  0  0  0  0  0  0  0  0
    2.5713    0.8902    2.3863 C   0  0  0  0  0  0  0  0  0  0  0  0
    2.3579    1.6609    3.5487 C   0  0  0  0  0  0  0  0  0  0  0  0
    3.2933    1.6889    4.5445 C   0  0  0  0  0  0  0  0  0  0  0  0
    4.4801    0.9478    4.4255 C   0  0  0  0  0  0  0  0  0  0  0  0
    4.7135    0.1890    3.3129 C   0  0  0  0  0  0  0  0  0  0  0  0
    3.7702    0.1392    2.2656 C   0  0  0  0  0  0  0  0  0  0  0  0
    3.9792   -0.6239    1.0984 C   0  0  0  0  0  0  0  0  0  0  0  0
    3.0520   -0.6428    0.0958 C   0  0  0  0  0  0  0  0  0  0  0  0
    0.4009    1.4166   -1.2327 N   0  0  0  0  0  0  0  0  0  0  0  0
    1.3456    2.3556   -1.5172 C   0  0  0  0  0  0  0  0  0  0  0  0
    0.8981    3.7646   -1.4658 C   0  0  0  0  0  0  0  0  0  0  0  0
    1.3008    4.8635   -2.1864 C   0  0  0  0  0  0  0  0  0  0  0  0
    0.5820    5.9557   -1.6711 C   0  0  0  0  0  0  0  0  0  0  0  0
   -0.1904    5.4406   -0.6585 C   0  0  0  0  0  0  0  0  0  0  0  0
   -1.1090    6.0623    0.2242 N   0  0  0  0  0  0  0  0  0  0  0  0
   -1.2793    7.2550    0.0811 O   0  0  0  0  0  0  0  0  0  0  0  0
   -1.6429    5.3620    1.0552 O   0  0  0  0  0  0  0  0  0  0  0  0
    0.0055    4.1168   -0.5278 O   0  0  0  0  0  0  0  0  0  0  0  0
    2.5060    2.0593   -1.7014 O   0  0  0  0  0  0  0  0  0  0  0  0
   -1.0320    1.3631   -1.4640 C   0  0  0  0  0  0  0  0  0  0  0  0
   -1.6876    2.7245   -1.8553 C   0  0  0  0  0  0  0  0  0  0  0  0
   -2.5917    3.2788   -1.1145 O   0  0  0  0  0  0  0  0  0  0  0  0
   -1.3170    3.1817   -2.9055 O   0  0  0  0  0  0  0  0  0  0  0  0
   -1.4480    0.4622   -0.3833 N   0  0  0  0  0  0  0  0  0  0  0  0
   -2.3043    0.6580    0.6282 C   0  0  0  0  0  0  0  0  0  0  0  0
   -2.4624   -0.4749    1.5864 C   0  0  0  0  0  0  0  0  0  0  0  0
   -2.7592   -1.8074    1.3919 C   0  0  0  0  0  0  0  0  0  0  0  0
   -2.9732   -2.3509    2.6691 C   0  0  0  0  0  0  0  0  0  0  0  0
   -2.7920   -1.3054    3.5438 C   0  0  0  0  0  0  0  0  0  0  0  0
   -2.8531   -1.2893    4.9663 N   0  0  0  0  0  0  0  0  0  0  0  0
   -3.1695   -2.3353    5.4938 O   0  0  0  0  0  0  0  0  0  0  0  0
   -2.5827   -0.2582    5.5324 O   0  0  0  0  0  0  0  0  0  0  0  0
   -2.4939   -0.1758    2.8894 O   0  0  0  0  0  0  0  0  0  0  0  0
   -2.9924    1.6568    0.7863 O   0  0  0  0  0  0  0  0  0  0  0  0
   -2.8023   -0.9131   -1.8968 H   0  0  0  0  0  0  0  0  0  0  0  0
   -3.4085   -2.7526   -3.3857 H   0  0  0  0  0  0  0  0  0  0  0  0
   -2.8741   -4.9229   -4.4285 H   0  0  0  0  0  0  0  0  0  0  0  0
   -1.3318   -6.8241   -4.6999 H   0  0  0  0  0  0  0  0  0  0  0  0
    0.8065   -6.8730   -3.4822 H   0  0  0  0  0  0  0  0  0  0  0  0
    1.4266   -5.0214   -1.9817 H   0  0  0  0  0  0  0  0  0  0  0  0
    0.8922   -2.8502   -0.9599 H   0  0  0  0  0  0  0  0  0  0  0  0
   -0.3334   -1.0229    0.5834 H   0  0  0  0  0  0  0  0  0  0  0  0
    1.2489   -0.4359   -1.7776 H   0  0  0  0  0  0  0  0  0  0  0  0
    0.7267    1.4306    1.4349 H   0  0  0  0  0  0  0  0  0  0  0  0
    1.4435    2.2299    3.6361 H   0  0  0  0  0  0  0  0  0  0  0  0
    3.1264    2.2825    5.4309 H   0  0  0  0  0  0  0  0  0  0  0  0
    5.2078    0.9839    5.2227 H   0  0  0  0  0  0  0  0  0  0  0  0
    5.6257   -0.3822    3.2169 H   0  0  0  0  0  0  0  0  0  0  0  0
    4.8949   -1.1894    1.0053 H   0  0  0  0  0  0  0  0  0  0  0  0
    3.2290   -1.2148   -0.8029 H   0  0  0  0  0  0  0  0  0  0  0  0
    2.0055    4.8647   -2.9912 H   0  0  0  0  0  0  0  0  0  0  0  0
    0.6128    6.9783   -1.9858 H   0  0  0  0  0  0  0  0  0  0  0  0
   -1.1818    0.7752   -2.3943 H   0  0  0  0  0  0  0  0  0  0  0  0
   -2.8211    2.7806   -0.2601 H   0  0  0  0  0  0  0  0  0  0  0  0
   -2.8217   -2.3226    0.4554 H   0  0  0  0  0  0  0  0  0  0  0  0
   -3.2248   -3.3588    2.9267 H   0  0  0  0  0  0  0  0  0  0  0  0
  1  2  2  0  0  0  0
  2  3  4  0  0  0  0
  3  4  4  0  0  0  0
  4  5  2  0  0  0  0
  5  6  4  0  0  0  0
  6  7  2  0  0  0  0
  3  8  4  0  0  0  0
  7  8  4  0  0  0  0
  8  9  4  0  0  0  0
  1 10  4  0  0  0  0
  9 10  2  0  0  0  0
 10 11  1  0  0  0  0
 11 12  1  0  0  0  0
 12 13  1  0  0  0  0
 13 14  2  0  0  0  0
 14 15  4  0  0  0  0
 15 16  4  0  0  0  0
 16 17  2  0  0  0  0
 17 18  4  0  0  0  0
 18 19  2  0  0  0  0
 15 20  4  0  0  0  0
 19 20  4  0  0  0  0
 20 21  4  0  0  0  0
 13 22  4  0  0  0  0
 21 22  2  0  0  0  0
 12 23  1  0  0  0  0
 23 24  1  0  0  0  0
 24 25  1  0  0  0  0
 25 26  2  0  0  0  0
 26 27  4  0  0  0  0
 27 28  4  0  0  0  0
 28 29  1  0  0  0  0
 29 30  4  0  0  0  0
 29 31  4  0  0  0  0
 30 31  1  0  0  0  0
 25 32  1  0  0  0  0
 28 32  1  0  0  0  0
 24 33  2  0  0  0  0
 23 34  1  0  0  0  0
 34 35  1  0  0  0  0
 35 36  4  0  0  0  0
 35 37  2  0  0  0  0
 11 38  1  0  0  0  0
 34 38  1  0  0  0  0
 38 39  4  0  0  0  0
 39 40  1  0  0  0  0
 40 41  4  0  0  0  0
 41 42  4  0  0  0  0
 42 43  4  0  0  0  0
 43 44  1  0  0  0  0
 44 45  4  0  0  0  0
 44 46  4  0  0  0  0
 45 46  1  0  0  0  0
 40 47  1  0  0  0  0
 43 47  1  0  0  0  0
 39 48  2  0  0  0  0
  1 49  1  0  0  0  0
  2 50  1  0  0  0  0
  4 51  1  0  0  0  0
  5 52  1  0  0  0  0
  6 53  1  0  0  0  0
  7 54  1  0  0  0  0
  9 55  1  0  0  0  0
 11 56  1  0  0  0  0
 12 57  1  0  0  0  0
 14 58  1  0  0  0  0
 16 59  1  0  0  0  0
 17 60  1  0  0  0  0
 18 61  1  0  0  0  0
 19 62  1  0  0  0  0
 21 63  1  0  0  0  0
 22 64  1  0  0  0  0
 26 65  1  0  0  0  0
 27 66  1  0  0  0  0
 34 67  1  0  0  0  0
 36 68  1  0  0  0  0
 41 69  1  0  0  0  0
 42 70  1  0  0  0  0
M  END
