
  xtb     03162221343D
 xtb: 6.3.3 (4ae9cef)
 64 70  0     0  0            999 V2000
    0.8381   -3.0925    0.3427 O   0  0  0  0  0  0  0  0  0  0  0  0
    1.1194   -1.9186    0.5654 C   0  0  0  0  0  0  0  0  0  0  0  0
    2.3738   -1.5163    1.2681 C   0  0  0  0  0  0  0  0  0  0  0  0
    2.3447   -0.9689    2.5465 C   0  0  0  0  0  0  0  0  0  0  0  0
    3.5217   -0.5728    3.1507 C   0  0  0  0  0  0  0  0  0  0  0  0
    4.7198   -0.7280    2.4659 C   0  0  0  0  0  0  0  0  0  0  0  0
    5.9470   -0.2635    3.0747 N   0  0  0  0  0  0  0  0  0  0  0  0
    5.8685    0.2469    4.1698 O   0  0  0  0  0  0  0  0  0  0  0  0
    6.9707   -0.4041    2.4448 O   0  0  0  0  0  0  0  0  0  0  0  0
    4.7644   -1.3160    1.2087 C   0  0  0  0  0  0  0  0  0  0  0  0
    3.5861   -1.7214    0.6157 C   0  0  0  0  0  0  0  0  0  0  0  0
    0.3341   -0.9107    0.1544 N   0  0  0  0  0  0  0  0  0  0  0  0
   -0.9395   -1.1505   -0.5044 C   0  0  0  0  0  0  0  0  0  0  0  0
   -0.7432   -1.7095   -1.9551 C   0  0  0  0  0  0  0  0  0  0  0  0
   -0.2439   -2.9214   -2.0204 O   0  0  0  0  0  0  0  0  0  0  0  0
   -1.0576   -1.0575   -2.9089 O   0  0  0  0  0  0  0  0  0  0  0  0
   -1.5639    0.1424   -0.5302 N   0  0  0  0  0  0  0  0  0  0  0  0
   -2.7309    0.4191   -1.1927 C   0  0  0  0  0  0  0  0  0  0  0  0
   -3.6445   -0.7508   -1.3847 C   0  0  0  0  0  0  0  0  0  0  0  0
   -4.1172   -1.4772   -0.2945 C   0  0  0  0  0  0  0  0  0  0  0  0
   -4.9976   -2.5228   -0.4895 C   0  0  0  0  0  0  0  0  0  0  0  0
   -5.3974   -2.8385   -1.7824 C   0  0  0  0  0  0  0  0  0  0  0  0
   -6.3095   -3.9399   -1.9877 N   0  0  0  0  0  0  0  0  0  0  0  0
   -6.6650   -4.1713   -3.1218 O   0  0  0  0  0  0  0  0  0  0  0  0
   -6.6623   -4.5639   -1.0101 O   0  0  0  0  0  0  0  0  0  0  0  0
   -4.9457   -2.1106   -2.8763 C   0  0  0  0  0  0  0  0  0  0  0  0
   -4.0756   -1.0579   -2.6716 C   0  0  0  0  0  0  0  0  0  0  0  0
   -3.0275    1.5397   -1.5319 O   0  0  0  0  0  0  0  0  0  0  0  0
   -0.5625    1.1990   -0.4179 C   0  0  0  0  0  0  0  0  0  0  0  0
   -1.0825    2.3821    0.3547 C   0  0  0  0  0  0  0  0  0  0  0  0
   -0.7971    3.6732   -0.0624 C   0  0  0  0  0  0  0  0  0  0  0  0
   -1.2500    4.7566    0.6696 C   0  0  0  0  0  0  0  0  0  0  0  0
   -1.9915    4.5575    1.8213 C   0  0  0  0  0  0  0  0  0  0  0  0
   -2.2771    3.2699    2.2429 C   0  0  0  0  0  0  0  0  0  0  0  0
   -1.8193    2.1866    1.5159 C   0  0  0  0  0  0  0  0  0  0  0  0
    0.6090    0.5131    0.3152 C   0  0  0  0  0  0  0  0  0  0  0  0
    1.9552    0.8968   -0.2390 C   0  0  0  0  0  0  0  0  0  0  0  0
    2.8173    1.6909    0.5044 C   0  0  0  0  0  0  0  0  0  0  0  0
    4.0670    2.0164    0.0080 C   0  0  0  0  0  0  0  0  0  0  0  0
    4.4625    1.5527   -1.2350 C   0  0  0  0  0  0  0  0  0  0  0  0
    3.5970    0.7790   -1.9903 C   0  0  0  0  0  0  0  0  0  0  0  0
    2.3461    0.4549   -1.4975 C   0  0  0  0  0  0  0  0  0  0  0  0
    1.4069   -0.8587    3.0695 H   0  0  0  0  0  0  0  0  0  0  0  0
    3.5299   -0.1368    4.1381 H   0  0  0  0  0  0  0  0  0  0  0  0
    5.7159   -1.4431    0.7163 H   0  0  0  0  0  0  0  0  0  0  0  0
    3.5968   -2.1820   -0.3595 H   0  0  0  0  0  0  0  0  0  0  0  0
   -1.5245   -1.8896    0.0663 H   0  0  0  0  0  0  0  0  0  0  0  0
    0.0762   -3.2601   -1.1362 H   0  0  0  0  0  0  0  0  0  0  0  0
   -3.8149   -1.2079    0.7068 H   0  0  0  0  0  0  0  0  0  0  0  0
   -5.3836   -3.0988    0.3378 H   0  0  0  0  0  0  0  0  0  0  0  0
   -5.2848   -2.3774   -3.8654 H   0  0  0  0  0  0  0  0  0  0  0  0
   -3.7089   -0.4743   -3.5005 H   0  0  0  0  0  0  0  0  0  0  0  0
   -0.2539    1.5209   -1.4216 H   0  0  0  0  0  0  0  0  0  0  0  0
   -0.2263    3.8288   -0.9656 H   0  0  0  0  0  0  0  0  0  0  0  0
   -1.0285    5.7590    0.3357 H   0  0  0  0  0  0  0  0  0  0  0  0
   -2.3506    5.4033    2.3878 H   0  0  0  0  0  0  0  0  0  0  0  0
   -2.8587    3.1094    3.1385 H   0  0  0  0  0  0  0  0  0  0  0  0
   -2.0475    1.1816    1.8429 H   0  0  0  0  0  0  0  0  0  0  0  0
    0.5637    0.7722    1.3808 H   0  0  0  0  0  0  0  0  0  0  0  0
    2.5084    2.0523    1.4745 H   0  0  0  0  0  0  0  0  0  0  0  0
    4.7336    2.6304    0.5944 H   0  0  0  0  0  0  0  0  0  0  0  0
    5.4411    1.7988   -1.6171 H   0  0  0  0  0  0  0  0  0  0  0  0
    3.8951    0.4268   -2.9659 H   0  0  0  0  0  0  0  0  0  0  0  0
    1.6736   -0.1469   -2.0925 H   0  0  0  0  0  0  0  0  0  0  0  0
  1  2  2  0  0  0  0
  2  3  1  0  0  0  0
  3  4  4  0  0  0  0
  4  5  4  0  0  0  0
  5  6  4  0  0  0  0
  6  7  1  0  0  0  0
  7  8  4  0  0  0  0
  7  9  4  0  0  0  0
  8  9  1  0  0  0  0
  6 10  4  0  0  0  0
  3 11  4  0  0  0  0
 10 11  4  0  0  0  0
  2 12  4  0  0  0  0
 12 13  1  0  0  0  0
 13 14  1  0  0  0  0
 14 15  4  0  0  0  0
 14 16  2  0  0  0  0
 13 17  1  0  0  0  0
 17 18  1  0  0  0  0
 18 19  1  0  0  0  0
 19 20  4  0  0  0  0
 20 21  4  0  0  0  0
 21 22  4  0  0  0  0
 22 23  1  0  0  0  0
 23 24  4  0  0  0  0
 23 25  4  0  0  0  0
 24 25  1  0  0  0  0
 22 26  4  0  0  0  0
 19 27  4  0  0  0  0
 26 27  4  0  0  0  0
 18 28  2  0  0  0  0
 17 29  1  0  0  0  0
 29 30  1  0  0  0  0
 30 31  4  0  0  0  0
 31 32  4  0  0  0  0
 32 33  4  0  0  0  0
 33 34  4  0  0  0  0
 30 35  4  0  0  0  0
 34 35  4  0  0  0  0
 12 36  1  0  0  0  0
 29 36  1  0  0  0  0
 36 37  1  0  0  0  0
 37 38  4  0  0  0  0
 38 39  4  0  0  0  0
 39 40  4  0  0  0  0
 40 41  4  0  0  0  0
 37 42  4  0  0  0  0
 41 42  4  0  0  0  0
  4 43  1  0  0  0  0
  5 44  1  0  0  0  0
 10 45  1  0  0  0  0
 11 46  1  0  0  0  0
 13 47  1  0  0  0  0
 15 48  1  0  0  0  0
 20 49  1  0  0  0  0
 21 50  1  0  0  0  0
 26 51  1  0  0  0  0
 27 52  1  0  0  0  0
 29 53  1  0  0  0  0
 31 54  1  0  0  0  0
 32 55  1  0  0  0  0
 33 56  1  0  0  0  0
 34 57  1  0  0  0  0
 35 58  1  0  0  0  0
 36 59  1  0  0  0  0
 38 60  1  0  0  0  0
 39 61  1  0  0  0  0
 40 62  1  0  0  0  0
 41 63  1  0  0  0  0
 42 64  1  0  0  0  0
M  END
