78

C      2.024198   -2.852105    1.061926
C      1.810247   -3.892760   -0.021421
F      2.170458   -5.151936    0.363159
F      2.498641   -3.646952   -1.164084
F      0.501123   -3.999092   -0.385267
C      2.792469   -3.218015    2.187888
C      3.029160   -2.320958    3.227468
C      2.504251   -1.038525    3.160998
C      1.748571   -0.652108    2.054456
C      1.495282   -1.537175    0.986422
C      0.665856   -1.058766   -0.207598
C     -0.812748   -0.755072    0.164546
C     -1.771787   -1.855389   -0.284773
C     -2.186437   -2.100951   -1.619457
C     -1.770400   -1.267237   -2.816038
F     -2.042032   -1.870180   -4.010545
F     -0.439694   -0.990316   -2.860710
F     -2.409808   -0.067308   -2.869390
C     -3.082460   -3.167185   -1.865194
C     -3.551284   -3.981864   -0.836968
C     -3.139917   -3.748695    0.465689
C     -2.260821   -2.702129    0.737667
N     -1.086421    0.574655   -0.378103
C     -2.229692    1.342829   -0.249008
C     -3.375359    0.797626    0.508193
C     -3.423109    0.822172    1.914572
C     -2.356367    1.469787    2.764229
C     -2.614654    2.955376    2.965177
C     -4.551871    0.274836    2.547595
C     -5.602802   -0.264852    1.801638
C     -5.556661   -0.247128    0.409983
C     -4.449288    0.294958   -0.238490
O     -2.332381    2.469799   -0.723611
C      0.117273    1.199440   -0.916995
C      0.504735    2.448509   -0.076545
O      0.660433    3.562348   -0.825332
O      0.680498    2.496651    1.133707
N      1.165455    0.182985   -0.800209
C      2.348344    0.165358   -1.517115
C      2.751055    1.381038   -2.246578
C      2.267658    1.545297   -3.551267
C      2.637036    2.668226   -4.288105
C      3.498339    3.611798   -3.729737
C      3.998144    3.434038   -2.436639
C      3.633740    2.313792   -1.673056
C      4.221764    2.135028   -0.294798
C      5.557622    1.408541   -0.331916
O      3.093622   -0.807613   -1.573447
H      3.217204   -4.219612    2.258250
H      3.626393   -2.623049    4.084086
H      2.690222   -0.330896    3.965373
H      1.365656    0.365088    2.032819
H      0.719218   -1.803124   -1.007400
H     -0.908420   -0.642053    1.250610
H     -3.424688   -3.372649   -2.880184
H     -4.237022   -4.796849   -1.055337
H     -3.503187   -4.378004    1.273980
H     -1.963187   -2.545857    1.774500
H     -1.366967    1.323313    2.326063
H     -2.315163    0.971705    3.740394
H     -3.576902    3.127601    3.458931
H     -1.829923    3.393957    3.590358
H     -2.625067    3.492294    2.010955
H     -4.628641    0.280403    3.633199
H     -6.468535   -0.681944    2.310033
H     -6.383451   -0.649150   -0.170114
H     -4.421723    0.324270   -1.324996
H     -0.060316    1.477036   -1.960542
H      0.826437    4.277897   -0.178530
H      1.611490    0.798330   -3.991476
H      2.260536    2.804949   -5.298763
H      3.791926    4.485543   -4.307751
H      4.684161    4.174247   -2.028980
H      4.355827    3.118662    0.171152
H      3.526149    1.598497    0.358332
H      6.297344    1.966372   -0.915936
H      5.949557    1.288922    0.683108
H      5.461091    0.413325   -0.777769
