
  xtb     03162223073D
 xtb: 6.3.3 (4ae9cef)
 78 82  0     0  0            999 V2000
    1.8863   -2.7854    1.1012 C   0  0  0  0  0  0  0  0  0  0  0  0
    1.5400   -3.9313    0.1912 C   0  0  0  0  0  0  0  0  0  0  0  0
    1.9750   -5.1123    0.6520 F   0  0  0  0  0  0  0  0  0  0  0  0
    2.0222   -3.8175   -1.0523 F   0  0  0  0  0  0  0  0  0  0  0  0
    0.1969   -4.0769    0.0516 F   0  0  0  0  0  0  0  0  0  0  0  0
    2.6694   -3.0399    2.2213 C   0  0  0  0  0  0  0  0  0  0  0  0
    2.9887   -2.0180    3.0953 C   0  0  0  0  0  0  0  0  0  0  0  0
    2.5131   -0.7395    2.8602 C   0  0  0  0  0  0  0  0  0  0  0  0
    1.7341   -0.4848    1.7476 C   0  0  0  0  0  0  0  0  0  0  0  0
    1.4224   -1.4950    0.8434 C   0  0  0  0  0  0  0  0  0  0  0  0
    0.5990   -1.1425   -0.3736 C   0  0  0  0  0  0  0  0  0  0  0  0
   -0.8595   -0.7918    0.0012 C   0  0  0  0  0  0  0  0  0  0  0  0
   -1.8729   -1.8336   -0.4156 C   0  0  0  0  0  0  0  0  0  0  0  0
   -2.3269   -2.0620   -1.7184 C   0  0  0  0  0  0  0  0  0  0  0  0
   -1.8785   -1.2529   -2.9084 C   0  0  0  0  0  0  0  0  0  0  0  0
   -2.2703   -1.7932   -4.0718 F   0  0  0  0  0  0  0  0  0  0  0  0
   -0.5473   -1.1141   -3.0147 F   0  0  0  0  0  0  0  0  0  0  0  0
   -2.3848   -0.0032   -2.9093 F   0  0  0  0  0  0  0  0  0  0  0  0
   -3.2764   -3.0502   -1.9636 C   0  0  0  0  0  0  0  0  0  0  0  0
   -3.7710   -3.8291   -0.9365 C   0  0  0  0  0  0  0  0  0  0  0  0
   -3.3174   -3.6226    0.3532 C   0  0  0  0  0  0  0  0  0  0  0  0
   -2.3848   -2.6357    0.6003 C   0  0  0  0  0  0  0  0  0  0  0  0
   -1.0734    0.5271   -0.5628 N   0  0  0  0  0  0  0  0  0  0  0  0
   -2.0482    1.3878   -0.1624 C   0  0  0  0  0  0  0  0  0  0  0  0
   -3.1649    0.7381    0.5861 C   0  0  0  0  0  0  0  0  0  0  0  0
   -3.1330    0.6920    1.9796 C   0  0  0  0  0  0  0  0  0  0  0  0
   -2.0497    1.3916    2.7502 C   0  0  0  0  0  0  0  0  0  0  0  0
   -2.4503    2.8490    2.9931 C   0  0  0  0  0  0  0  0  0  0  0  0
   -4.1673    0.0424    2.6415 C   0  0  0  0  0  0  0  0  0  0  0  0
   -5.2099   -0.5370    1.9414 C   0  0  0  0  0  0  0  0  0  0  0  0
   -5.2468   -0.4572    0.5598 C   0  0  0  0  0  0  0  0  0  0  0  0
   -4.2241    0.1811   -0.1174 C   0  0  0  0  0  0  0  0  0  0  0  0
   -1.9796    2.5698   -0.4328 O   0  0  0  0  0  0  0  0  0  0  0  0
    0.1025    1.0759   -1.2072 C   0  0  0  0  0  0  0  0  0  0  0  0
    0.4674    2.4121   -0.5239 C   0  0  0  0  0  0  0  0  0  0  0  0
    0.5548    3.4083   -1.3836 O   0  0  0  0  0  0  0  0  0  0  0  0
    0.7159    2.4904    0.6508 O   0  0  0  0  0  0  0  0  0  0  0  0
    1.1105    0.0703   -0.9987 N   0  0  0  0  0  0  0  0  0  0  0  0
    2.4208    0.1437   -1.3596 C   0  0  0  0  0  0  0  0  0  0  0  0
    2.7933    1.3965   -2.0815 C   0  0  0  0  0  0  0  0  0  0  0  0
    2.3834    1.5423   -3.4016 C   0  0  0  0  0  0  0  0  0  0  0  0
    2.7349    2.6697   -4.1197 C   0  0  0  0  0  0  0  0  0  0  0  0
    3.4963    3.6557   -3.5158 C   0  0  0  0  0  0  0  0  0  0  0  0
    3.9112    3.5050   -2.2053 C   0  0  0  0  0  0  0  0  0  0  0  0
    3.5743    2.3759   -1.4684 C   0  0  0  0  0  0  0  0  0  0  0  0
    4.0683    2.2109   -0.0600 C   0  0  0  0  0  0  0  0  0  0  0  0
    5.3501    1.3759   -0.0367 C   0  0  0  0  0  0  0  0  0  0  0  0
    3.1915   -0.7602   -1.1155 O   0  0  0  0  0  0  0  0  0  0  0  0
    3.0317   -4.0399    2.4022 H   0  0  0  0  0  0  0  0  0  0  0  0
    3.6064   -2.2227    3.9558 H   0  0  0  0  0  0  0  0  0  0  0  0
    2.7523    0.0642    3.5397 H   0  0  0  0  0  0  0  0  0  0  0  0
    1.3748    0.5177    1.5645 H   0  0  0  0  0  0  0  0  0  0  0  0
    0.6370   -1.9518   -1.1083 H   0  0  0  0  0  0  0  0  0  0  0  0
   -0.9241   -0.7169    1.0961 H   0  0  0  0  0  0  0  0  0  0  0  0
   -3.6261   -3.2115   -2.9713 H   0  0  0  0  0  0  0  0  0  0  0  0
   -4.5040   -4.5914   -1.1475 H   0  0  0  0  0  0  0  0  0  0  0  0
   -3.6901   -4.2245    1.1668 H   0  0  0  0  0  0  0  0  0  0  0  0
   -2.0406   -2.4753    1.6106 H   0  0  0  0  0  0  0  0  0  0  0  0
   -1.1090    1.3869    2.1963 H   0  0  0  0  0  0  0  0  0  0  0  0
   -1.8913    0.8904    3.7081 H   0  0  0  0  0  0  0  0  0  0  0  0
   -3.3923    2.9019    3.5348 H   0  0  0  0  0  0  0  0  0  0  0  0
   -1.6822    3.3574    3.5702 H   0  0  0  0  0  0  0  0  0  0  0  0
   -2.5660    3.3610    2.0412 H   0  0  0  0  0  0  0  0  0  0  0  0
   -4.1524   -0.0049    3.7211 H   0  0  0  0  0  0  0  0  0  0  0  0
   -6.0022   -1.0403    2.4752 H   0  0  0  0  0  0  0  0  0  0  0  0
   -6.0684   -0.8904    0.0103 H   0  0  0  0  0  0  0  0  0  0  0  0
   -4.2459    0.2596   -1.1934 H   0  0  0  0  0  0  0  0  0  0  0  0
   -0.0877    1.2836   -2.2708 H   0  0  0  0  0  0  0  0  0  0  0  0
    0.7316    4.2476   -0.9295 H   0  0  0  0  0  0  0  0  0  0  0  0
    1.8000    0.7592   -3.8641 H   0  0  0  0  0  0  0  0  0  0  0  0
    2.4157    2.7785   -5.1449 H   0  0  0  0  0  0  0  0  0  0  0  0
    3.7709    4.5418   -4.0688 H   0  0  0  0  0  0  0  0  0  0  0  0
    4.5106    4.2749   -1.7402 H   0  0  0  0  0  0  0  0  0  0  0  0
    4.2656    3.1940    0.3740 H   0  0  0  0  0  0  0  0  0  0  0  0
    3.3102    1.7158    0.5496 H   0  0  0  0  0  0  0  0  0  0  0  0
    6.1136    1.8370   -0.6595 H   0  0  0  0  0  0  0  0  0  0  0  0
    5.7290    1.2958    0.9796 H   0  0  0  0  0  0  0  0  0  0  0  0
    5.1476    0.3772   -0.4141 H   0  0  0  0  0  0  0  0  0  0  0  0
  1  2  1  0  0  0  0
  2  3  1  0  0  0  0
  2  4  1  0  0  0  0
  2  5  1  0  0  0  0
  1  6  4  0  0  0  0
  6  7  4  0  0  0  0
  7  8  4  0  0  0  0
  8  9  4  0  0  0  0
  1 10  4  0  0  0  0
  9 10  4  0  0  0  0
 10 11  1  0  0  0  0
 11 12  1  0  0  0  0
 12 13  1  0  0  0  0
 13 14  4  0  0  0  0
 14 15  1  0  0  0  0
 15 16  1  0  0  0  0
 15 17  1  0  0  0  0
 15 18  1  0  0  0  0
 14 19  4  0  0  0  0
 19 20  4  0  0  0  0
 20 21  4  0  0  0  0
 13 22  4  0  0  0  0
 21 22  4  0  0  0  0
 12 23  1  0  0  0  0
 23 24  4  0  0  0  0
 24 25  1  0  0  0  0
 25 26  4  0  0  0  0
 26 27  1  0  0  0  0
 27 28  1  0  0  0  0
 26 29  4  0  0  0  0
 29 30  4  0  0  0  0
 30 31  4  0  0  0  0
 25 32  4  0  0  0  0
 31 32  4  0  0  0  0
 24 33  2  0  0  0  0
 23 34  1  0  0  0  0
 34 35  1  0  0  0  0
 35 36  1  0  0  0  0
 35 37  2  0  0  0  0
 11 38  1  0  0  0  0
 34 38  1  0  0  0  0
 38 39  1  0  0  0  0
 39 40  1  0  0  0  0
 40 41  4  0  0  0  0
 41 42  4  0  0  0  0
 42 43  4  0  0  0  0
 43 44  4  0  0  0  0
 40 45  4  0  0  0  0
 44 45  4  0  0  0  0
 45 46  1  0  0  0  0
 46 47  1  0  0  0  0
 39 48  2  0  0  0  0
  6 49  1  0  0  0  0
  7 50  1  0  0  0  0
  8 51  1  0  0  0  0
  9 52  1  0  0  0  0
 11 53  1  0  0  0  0
 12 54  1  0  0  0  0
 19 55  1  0  0  0  0
 20 56  1  0  0  0  0
 21 57  1  0  0  0  0
 22 58  1  0  0  0  0
 27 59  1  0  0  0  0
 27 60  1  0  0  0  0
 28 61  1  0  0  0  0
 28 62  1  0  0  0  0
 28 63  1  0  0  0  0
 29 64  1  0  0  0  0
 30 65  1  0  0  0  0
 31 66  1  0  0  0  0
 32 67  1  0  0  0  0
 34 68  1  0  0  0  0
 36 69  1  0  0  0  0
 41 70  1  0  0  0  0
 42 71  1  0  0  0  0
 43 72  1  0  0  0  0
 44 73  1  0  0  0  0
 46 74  1  0  0  0  0
 46 75  1  0  0  0  0
 47 76  1  0  0  0  0
 47 77  1  0  0  0  0
 47 78  1  0  0  0  0
M  END
