
  xtb     03172201273D
 xtb: 6.3.3 (4ae9cef)
 74 80  0     0  0            999 V2000
   -0.5894    4.5930   -2.6262 C   0  0  0  0  0  0  0  0  0  0  0  0
   -0.9537    4.9439   -1.3577 C   0  0  0  0  0  0  0  0  0  0  0  0
   -0.9758    3.9741   -0.3459 C   0  0  0  0  0  0  0  0  0  0  0  0
   -0.6364    2.6781   -0.6176 C   0  0  0  0  0  0  0  0  0  0  0  0
   -0.2638    2.2745   -1.9182 C   0  0  0  0  0  0  0  0  0  0  0  0
   -0.2381    3.2633   -2.9408 C   0  0  0  0  0  0  0  0  0  0  0  0
    0.1383    2.9044   -4.2509 C   0  0  0  0  0  0  0  0  0  0  0  0
    0.4707    1.6145   -4.5489 C   0  0  0  0  0  0  0  0  0  0  0  0
    0.4392    0.6353   -3.5497 C   0  0  0  0  0  0  0  0  0  0  0  0
    0.0845    0.9400   -2.2591 C   0  0  0  0  0  0  0  0  0  0  0  0
    0.1296   -0.1639   -1.2391 C   0  0  0  0  0  0  0  0  0  0  0  0
    1.2182    0.0139   -0.1527 C   0  0  0  0  0  0  0  0  0  0  0  0
    2.4460   -0.8105   -0.4547 C   0  0  0  0  0  0  0  0  0  0  0  0
    2.6157   -2.0396    0.1275 C   0  0  0  0  0  0  0  0  0  0  0  0
    3.7240   -2.8429   -0.1708 C   0  0  0  0  0  0  0  0  0  0  0  0
    4.6538   -2.4162   -1.0732 C   0  0  0  0  0  0  0  0  0  0  0  0
    4.5228   -1.1572   -1.6952 C   0  0  0  0  0  0  0  0  0  0  0  0
    3.4129   -0.3261   -1.3782 C   0  0  0  0  0  0  0  0  0  0  0  0
    3.3377    0.9407   -1.9980 C   0  0  0  0  0  0  0  0  0  0  0  0
    4.2844    1.3467   -2.8972 C   0  0  0  0  0  0  0  0  0  0  0  0
    5.3639    0.5148   -3.2242 C   0  0  0  0  0  0  0  0  0  0  0  0
    5.4815   -0.7079   -2.6277 C   0  0  0  0  0  0  0  0  0  0  0  0
    0.5418   -0.3771    1.0810 N   0  0  0  0  0  0  0  0  0  0  0  0
    1.0176    0.0671    2.2756 C   0  0  0  0  0  0  0  0  0  0  0  0
    0.1440   -0.2092    3.4635 C   0  0  0  0  0  0  0  0  0  0  0  0
    0.2899   -1.3986    4.1853 C   0  0  0  0  0  0  0  0  0  0  0  0
    1.1830   -2.3959    3.7305 C   0  0  0  0  0  0  0  0  0  0  0  0
    1.8704   -3.2314    3.3512 N   0  0  0  0  0  0  0  0  0  0  0  0
   -0.4684   -1.6194    5.3347 C   0  0  0  0  0  0  0  0  0  0  0  0
   -1.3668   -0.6587    5.7576 C   0  0  0  0  0  0  0  0  0  0  0  0
   -1.5110    0.5218    5.0447 C   0  0  0  0  0  0  0  0  0  0  0  0
   -0.7538    0.7507    3.9071 C   0  0  0  0  0  0  0  0  0  0  0  0
    2.0751    0.6459    2.3703 O   0  0  0  0  0  0  0  0  0  0  0  0
   -0.7844   -0.8759    0.8203 C   0  0  0  0  0  0  0  0  0  0  0  0
   -0.8072   -2.4219    0.7522 C   0  0  0  0  0  0  0  0  0  0  0  0
   -0.9561   -2.9535    1.9624 O   0  0  0  0  0  0  0  0  0  0  0  0
   -0.7334   -3.0568   -0.2594 O   0  0  0  0  0  0  0  0  0  0  0  0
   -1.1069   -0.3200   -0.4686 N   0  0  0  0  0  0  0  0  0  0  0  0
   -2.3122   -0.4174   -1.0897 C   0  0  0  0  0  0  0  0  0  0  0  0
   -3.4497   -0.8944   -0.2326 C   0  0  0  0  0  0  0  0  0  0  0  0
   -4.0940   -2.0644   -0.6097 C   0  0  0  0  0  0  0  0  0  0  0  0
   -5.1843   -2.5303    0.1056 C   0  0  0  0  0  0  0  0  0  0  0  0
   -5.6590   -1.8200    1.1979 C   0  0  0  0  0  0  0  0  0  0  0  0
   -5.0439   -0.6430    1.5770 C   0  0  0  0  0  0  0  0  0  0  0  0
   -3.9373   -0.1753    0.8655 C   0  0  0  0  0  0  0  0  0  0  0  0
   -3.3193    1.0226    1.2905 C   0  0  0  0  0  0  0  0  0  0  0  0
   -2.8195    1.9733    1.6926 N   0  0  0  0  0  0  0  0  0  0  0  0
   -2.4799   -0.1488   -2.2572 O   0  0  0  0  0  0  0  0  0  0  0  0
   -0.5674    5.3302   -3.4164 H   0  0  0  0  0  0  0  0  0  0  0  0
   -1.2259    5.9633   -1.1266 H   0  0  0  0  0  0  0  0  0  0  0  0
   -1.2696    4.2514    0.6549 H   0  0  0  0  0  0  0  0  0  0  0  0
   -0.6729    1.9568    0.1822 H   0  0  0  0  0  0  0  0  0  0  0  0
    0.1546    3.6701   -5.0132 H   0  0  0  0  0  0  0  0  0  0  0  0
    0.7568    1.3362   -5.5520 H   0  0  0  0  0  0  0  0  0  0  0  0
    0.7032   -0.3807   -3.8041 H   0  0  0  0  0  0  0  0  0  0  0  0
    0.3149   -1.1104   -1.7671 H   0  0  0  0  0  0  0  0  0  0  0  0
    1.5079    1.0646   -0.0399 H   0  0  0  0  0  0  0  0  0  0  0  0
    1.8982   -2.4062    0.8461 H   0  0  0  0  0  0  0  0  0  0  0  0
    3.8247   -3.7980    0.3212 H   0  0  0  0  0  0  0  0  0  0  0  0
    5.5064   -3.0315   -1.3220 H   0  0  0  0  0  0  0  0  0  0  0  0
    2.5265    1.6105   -1.7645 H   0  0  0  0  0  0  0  0  0  0  0  0
    4.2026    2.3196   -3.3591 H   0  0  0  0  0  0  0  0  0  0  0  0
    6.1009    0.8511   -3.9385 H   0  0  0  0  0  0  0  0  0  0  0  0
    6.3160   -1.3548   -2.8585 H   0  0  0  0  0  0  0  0  0  0  0  0
   -0.3429   -2.5411    5.8833 H   0  0  0  0  0  0  0  0  0  0  0  0
   -1.9535   -0.8289    6.6477 H   0  0  0  0  0  0  0  0  0  0  0  0
   -2.2120    1.2724    5.3760 H   0  0  0  0  0  0  0  0  0  0  0  0
   -0.8653    1.6728    3.3569 H   0  0  0  0  0  0  0  0  0  0  0  0
   -1.4767   -0.5640    1.6126 H   0  0  0  0  0  0  0  0  0  0  0  0
   -0.9060   -3.9245    1.9287 H   0  0  0  0  0  0  0  0  0  0  0  0
   -3.7270   -2.6033   -1.4697 H   0  0  0  0  0  0  0  0  0  0  0  0
   -5.6707   -3.4454   -0.1958 H   0  0  0  0  0  0  0  0  0  0  0  0
   -6.5139   -2.1798    1.7499 H   0  0  0  0  0  0  0  0  0  0  0  0
   -5.4096   -0.0726    2.4180 H   0  0  0  0  0  0  0  0  0  0  0  0
  1  2  2  0  0  0  0
  2  3  4  0  0  0  0
  3  4  2  0  0  0  0
  4  5  4  0  0  0  0
  1  6  4  0  0  0  0
  5  6  4  0  0  0  0
  6  7  4  0  0  0  0
  7  8  2  0  0  0  0
  8  9  4  0  0  0  0
  5 10  4  0  0  0  0
  9 10  2  0  0  0  0
 10 11  1  0  0  0  0
 11 12  1  0  0  0  0
 12 13  1  0  0  0  0
 13 14  2  0  0  0  0
 14 15  4  0  0  0  0
 15 16  2  0  0  0  0
 16 17  4  0  0  0  0
 13 18  4  0  0  0  0
 17 18  4  0  0  0  0
 18 19  4  0  0  0  0
 19 20  2  0  0  0  0
 20 21  4  0  0  0  0
 17 22  4  0  0  0  0
 21 22  2  0  0  0  0
 12 23  1  0  0  0  0
 23 24  4  0  0  0  0
 24 25  1  0  0  0  0
 25 26  4  0  0  0  0
 26 27  1  0  0  0  0
 27 28  3  0  0  0  0
 26 29  4  0  0  0  0
 29 30  4  0  0  0  0
 30 31  4  0  0  0  0
 25 32  4  0  0  0  0
 31 32  4  0  0  0  0
 24 33  2  0  0  0  0
 23 34  1  0  0  0  0
 34 35  1  0  0  0  0
 35 36  1  0  0  0  0
 35 37  2  0  0  0  0
 11 38  1  0  0  0  0
 34 38  1  0  0  0  0
 38 39  4  0  0  0  0
 39 40  1  0  0  0  0
 40 41  4  0  0  0  0
 41 42  4  0  0  0  0
 42 43  4  0  0  0  0
 43 44  4  0  0  0  0
 40 45  4  0  0  0  0
 44 45  4  0  0  0  0
 45 46  1  0  0  0  0
 46 47  3  0  0  0  0
 39 48  2  0  0  0  0
  1 49  1  0  0  0  0
  2 50  1  0  0  0  0
  3 51  1  0  0  0  0
  4 52  1  0  0  0  0
  7 53  1  0  0  0  0
  8 54  1  0  0  0  0
  9 55  1  0  0  0  0
 11 56  1  0  0  0  0
 12 57  1  0  0  0  0
 14 58  1  0  0  0  0
 15 59  1  0  0  0  0
 16 60  1  0  0  0  0
 19 61  1  0  0  0  0
 20 62  1  0  0  0  0
 21 63  1  0  0  0  0
 22 64  1  0  0  0  0
 29 65  1  0  0  0  0
 30 66  1  0  0  0  0
 31 67  1  0  0  0  0
 32 68  1  0  0  0  0
 34 69  1  0  0  0  0
 36 70  1  0  0  0  0
 41 71  1  0  0  0  0
 42 72  1  0  0  0  0
 43 73  1  0  0  0  0
 44 74  1  0  0  0  0
M  END
