84

C      2.710503    3.592105    2.326893
C      2.408189    2.989946    3.549011
C      1.849211    1.725566    3.560684
C      1.588395    1.059339    2.361624
C      1.874522    1.638031    1.106736
C      2.444132    2.936142    1.111151
C      2.737782    3.573559   -0.105019
C      2.495204    2.954340   -1.328915
C      1.935354    1.686140   -1.356264
C      1.626159    0.999718   -0.154162
C      1.047937   -0.406624   -0.246011
C     -0.413561   -0.396238   -0.842597
C     -1.473600   -0.026087    0.177867
C     -1.512482   -0.710018    1.411387
C     -2.415612   -0.345656    2.407558
C     -3.320810    0.685684    2.175853
C     -3.354936    1.346147    0.956302
C     -2.420161    1.023265   -0.063485
C     -2.533901    1.772104   -1.269187
C     -3.536148    2.731015   -1.472721
C     -4.440842    3.013606   -0.465274
C     -4.341576    2.334646    0.748580
N     -0.557598   -1.702542   -1.526417
C     -1.471930   -1.935731   -2.568352
C     -2.894256   -1.534099   -2.453612
C     -3.611175   -1.773653   -1.273311
C     -4.980146   -1.469463   -1.192415
C     -5.685218   -1.675927    0.121949
C     -5.657110   -1.028428   -2.352129
C     -7.137496   -0.749690   -2.332078
C     -4.942291   -0.845713   -3.548181
C     -3.577955   -1.104095   -3.606648
O     -1.163724   -2.604974   -3.549476
C      0.797176   -2.271787   -1.723831
C      0.908905   -3.606238   -0.918075
O     -0.294587   -4.123092   -0.553202
O      1.953593   -4.147352   -0.578487
N      1.724795   -1.294513   -1.182051
C      3.076927   -1.424338   -1.454087
C      4.064362   -0.936416   -0.473648
C      5.040580   -0.034071   -0.877752
C      6.002957    0.371749    0.038605
C      6.004872   -0.120672    1.362076
C      7.107154    0.311962    2.293908
C      5.030520   -1.059581    1.753833
C      5.048118   -1.707148    3.109756
C      4.074596   -1.470377    0.815392
O      3.487070   -1.858949   -2.535168
H      3.147909    4.581926    2.340957
H      2.599960    3.512922    4.482057
H      1.594519    1.246966    4.509076
H      1.146129    0.080957    2.449993
H      3.183920    4.567434   -0.116179
H      2.765645    3.452309   -2.259688
H      1.789264    1.201669   -2.323228
H      1.095581   -0.925072    0.709130
H     -0.436848    0.323526   -1.674019
H     -0.822481   -1.517951    1.632828
H     -2.408887   -0.849834    3.367033
H     -4.001860    0.970536    2.975810
H     -1.869205    1.596719   -2.110259
H     -3.596201    3.252949   -2.417215
H     -5.215790    3.774325   -0.613423
H     -5.060346    2.571947    1.539915
H     -3.126745   -2.182156   -0.396443
H     -6.416812   -0.881175    0.318886
H     -6.183793   -2.654240    0.127220
H     -4.967338   -1.636179    0.957372
H     -7.530219   -0.642884   -3.359924
H     -7.352426    0.188059   -1.822696
H     -7.670915   -1.589707   -1.861916
H     -5.460549   -0.530285   -4.465395
H     -3.059844   -1.014079   -4.555696
H      1.030246   -2.464247   -2.769177
H     -1.026220   -3.596242   -0.927429
H      5.062869    0.337969   -1.898281
H      6.771609    1.062851   -0.292904
H      7.789679   -0.513557    2.491743
H      6.710657    0.667859    3.251496
H      7.698042    1.129359    1.855399
H      4.100429   -2.222346    3.331439
H      5.176210   -0.955548    3.904184
H      5.861954   -2.456962    3.159943
H      3.379957   -2.269410    1.072785
