
  xtb     03162222563D
 xtb: 6.3.3 (4ae9cef)
 84 90  0     0  0            999 V2000
    2.8883    3.4453    1.6715 C   0  0  0  0  0  0  0  0  0  0  0  0
    2.5669    3.0266    2.9302 C   0  0  0  0  0  0  0  0  0  0  0  0
    1.8837    1.8149    3.1067 C   0  0  0  0  0  0  0  0  0  0  0  0
    1.5615    1.0333    2.0330 C   0  0  0  0  0  0  0  0  0  0  0  0
    1.9016    1.4194    0.7182 C   0  0  0  0  0  0  0  0  0  0  0  0
    2.5562    2.6699    0.5407 C   0  0  0  0  0  0  0  0  0  0  0  0
    2.8603    3.1247   -0.7576 C   0  0  0  0  0  0  0  0  0  0  0  0
    2.5288    2.3771   -1.8509 C   0  0  0  0  0  0  0  0  0  0  0  0
    1.9220    1.1285   -1.6812 C   0  0  0  0  0  0  0  0  0  0  0  0
    1.6328    0.6333   -0.4325 C   0  0  0  0  0  0  0  0  0  0  0  0
    1.0277   -0.7435   -0.3421 C   0  0  0  0  0  0  0  0  0  0  0  0
   -0.4078   -0.7650   -0.9249 C   0  0  0  0  0  0  0  0  0  0  0  0
   -1.4706   -0.6422    0.1369 C   0  0  0  0  0  0  0  0  0  0  0  0
   -1.6593   -1.7016    0.9914 C   0  0  0  0  0  0  0  0  0  0  0  0
   -2.6843   -1.6970    1.9439 C   0  0  0  0  0  0  0  0  0  0  0  0
   -3.5319   -0.6300    2.0252 C   0  0  0  0  0  0  0  0  0  0  0  0
   -3.3538    0.4931    1.1923 C   0  0  0  0  0  0  0  0  0  0  0  0
   -2.2885    0.5133    0.2500 C   0  0  0  0  0  0  0  0  0  0  0  0
   -2.1106    1.6837   -0.5193 C   0  0  0  0  0  0  0  0  0  0  0  0
   -2.9610    2.7468   -0.3994 C   0  0  0  0  0  0  0  0  0  0  0  0
   -4.0353    2.7055    0.4999 C   0  0  0  0  0  0  0  0  0  0  0  0
   -4.2181    1.6042    1.2853 C   0  0  0  0  0  0  0  0  0  0  0  0
   -0.4801   -2.0462   -1.6174 N   0  0  0  0  0  0  0  0  0  0  0  0
   -1.5743   -2.5751   -2.1961 C   0  0  0  0  0  0  0  0  0  0  0  0
   -2.7732   -1.6935   -2.2011 C   0  0  0  0  0  0  0  0  0  0  0  0
   -3.8608   -2.0223   -1.4034 C   0  0  0  0  0  0  0  0  0  0  0  0
   -4.9672   -1.1920   -1.3239 C   0  0  0  0  0  0  0  0  0  0  0  0
   -6.1084   -1.5475   -0.4237 C   0  0  0  0  0  0  0  0  0  0  0  0
   -4.9997   -0.0211   -2.0881 C   0  0  0  0  0  0  0  0  0  0  0  0
   -6.1734    0.9039   -2.0125 C   0  0  0  0  0  0  0  0  0  0  0  0
   -3.9297    0.2731   -2.9210 C   0  0  0  0  0  0  0  0  0  0  0  0
   -2.8177   -0.5455   -2.9789 C   0  0  0  0  0  0  0  0  0  0  0  0
   -1.5630   -3.7129   -2.6588 O   0  0  0  0  0  0  0  0  0  0  0  0
    0.8067   -2.7195   -1.6194 C   0  0  0  0  0  0  0  0  0  0  0  0
    0.8012   -3.9224   -0.6273 C   0  0  0  0  0  0  0  0  0  0  0  0
    0.0509   -4.9367   -0.9977 O   0  0  0  0  0  0  0  0  0  0  0  0
    1.4215   -3.8840    0.3986 O   0  0  0  0  0  0  0  0  0  0  0  0
    1.7252   -1.7093   -1.1738 N   0  0  0  0  0  0  0  0  0  0  0  0
    3.0731   -1.8956   -1.2968 C   0  0  0  0  0  0  0  0  0  0  0  0
    3.9056   -1.0141   -0.4298 C   0  0  0  0  0  0  0  0  0  0  0  0
    4.7572   -0.0624   -0.9702 C   0  0  0  0  0  0  0  0  0  0  0  0
    5.4940    0.7476   -0.1277 C   0  0  0  0  0  0  0  0  0  0  0  0
    5.4257    0.6060    1.2513 C   0  0  0  0  0  0  0  0  0  0  0  0
    6.2178    1.5109    2.1434 C   0  0  0  0  0  0  0  0  0  0  0  0
    4.6159   -0.3959    1.7950 C   0  0  0  0  0  0  0  0  0  0  0  0
    4.5560   -0.6083    3.2759 C   0  0  0  0  0  0  0  0  0  0  0  0
    3.8596   -1.1899    0.9473 C   0  0  0  0  0  0  0  0  0  0  0  0
    3.5217   -2.7172   -2.0678 O   0  0  0  0  0  0  0  0  0  0  0  0
    3.4003    4.3845    1.5182 H   0  0  0  0  0  0  0  0  0  0  0  0
    2.8245    3.6251    3.7920 H   0  0  0  0  0  0  0  0  0  0  0  0
    1.6107    1.4999    4.1033 H   0  0  0  0  0  0  0  0  0  0  0  0
    1.0273    0.1127    2.2062 H   0  0  0  0  0  0  0  0  0  0  0  0
    3.3563    4.0777   -0.8705 H   0  0  0  0  0  0  0  0  0  0  0  0
    2.7480    2.7295   -2.8476 H   0  0  0  0  0  0  0  0  0  0  0  0
    1.7108    0.5265   -2.5541 H   0  0  0  0  0  0  0  0  0  0  0  0
    1.0022   -1.1053    0.6904 H   0  0  0  0  0  0  0  0  0  0  0  0
   -0.5076    0.0326   -1.6658 H   0  0  0  0  0  0  0  0  0  0  0  0
   -1.0220   -2.5716    0.9194 H   0  0  0  0  0  0  0  0  0  0  0  0
   -2.8052   -2.5504    2.5938 H   0  0  0  0  0  0  0  0  0  0  0  0
   -4.3463   -0.6258    2.7352 H   0  0  0  0  0  0  0  0  0  0  0  0
   -1.2797    1.7618   -1.2029 H   0  0  0  0  0  0  0  0  0  0  0  0
   -2.8050    3.6315   -0.9986 H   0  0  0  0  0  0  0  0  0  0  0  0
   -4.7025    3.5516    0.5735 H   0  0  0  0  0  0  0  0  0  0  0  0
   -5.0275    1.5670    2.0011 H   0  0  0  0  0  0  0  0  0  0  0  0
   -3.8280   -2.9300   -0.8187 H   0  0  0  0  0  0  0  0  0  0  0  0
   -6.2840   -0.7506    0.2976 H   0  0  0  0  0  0  0  0  0  0  0  0
   -7.0235   -1.6827   -0.9992 H   0  0  0  0  0  0  0  0  0  0  0  0
   -5.8993   -2.4665    0.1168 H   0  0  0  0  0  0  0  0  0  0  0  0
   -6.0415    1.7496   -2.6819 H   0  0  0  0  0  0  0  0  0  0  0  0
   -6.2913    1.2810   -0.9973 H   0  0  0  0  0  0  0  0  0  0  0  0
   -7.0915    0.3844   -2.2838 H   0  0  0  0  0  0  0  0  0  0  0  0
   -3.9622    1.1661   -3.5282 H   0  0  0  0  0  0  0  0  0  0  0  0
   -1.9957   -0.2996   -3.6353 H   0  0  0  0  0  0  0  0  0  0  0  0
    1.0732   -3.0857   -2.6218 H   0  0  0  0  0  0  0  0  0  0  0  0
   -0.5164   -4.7155   -1.7909 H   0  0  0  0  0  0  0  0  0  0  0  0
    4.8237    0.0532   -2.0413 H   0  0  0  0  0  0  0  0  0  0  0  0
    6.1373    1.5063   -0.5502 H   0  0  0  0  0  0  0  0  0  0  0  0
    6.9177    0.9374    2.7502 H   0  0  0  0  0  0  0  0  0  0  0  0
    5.5554    2.0505    2.8197 H   0  0  0  0  0  0  0  0  0  0  0  0
    6.7797    2.2338    1.5576 H   0  0  0  0  0  0  0  0  0  0  0  0
    3.8818   -1.4251    3.5185 H   0  0  0  0  0  0  0  0  0  0  0  0
    4.2069    0.2941    3.7770 H   0  0  0  0  0  0  0  0  0  0  0  0
    5.5442   -0.8463    3.6680 H   0  0  0  0  0  0  0  0  0  0  0  0
    3.2363   -1.9722    1.3567 H   0  0  0  0  0  0  0  0  0  0  0  0
  1  2  2  0  0  0  0
  2  3  4  0  0  0  0
  3  4  2  0  0  0  0
  4  5  4  0  0  0  0
  1  6  4  0  0  0  0
  5  6  4  0  0  0  0
  6  7  4  0  0  0  0
  7  8  2  0  0  0  0
  8  9  4  0  0  0  0
  5 10  4  0  0  0  0
  9 10  2  0  0  0  0
 10 11  1  0  0  0  0
 11 12  1  0  0  0  0
 12 13  1  0  0  0  0
 13 14  2  0  0  0  0
 14 15  4  0  0  0  0
 15 16  2  0  0  0  0
 16 17  4  0  0  0  0
 13 18  4  0  0  0  0
 17 18  4  0  0  0  0
 18 19  4  0  0  0  0
 19 20  2  0  0  0  0
 20 21  4  0  0  0  0
 17 22  4  0  0  0  0
 21 22  2  0  0  0  0
 12 23  1  0  0  0  0
 23 24  4  0  0  0  0
 24 25  1  0  0  0  0
 25 26  4  0  0  0  0
 26 27  4  0  0  0  0
 27 28  1  0  0  0  0
 27 29  4  0  0  0  0
 29 30  1  0  0  0  0
 29 31  4  0  0  0  0
 25 32  4  0  0  0  0
 31 32  4  0  0  0  0
 24 33  2  0  0  0  0
 23 34  1  0  0  0  0
 34 35  1  0  0  0  0
 35 36  4  0  0  0  0
 35 37  2  0  0  0  0
 11 38  1  0  0  0  0
 34 38  1  0  0  0  0
 38 39  1  0  0  0  0
 39 40  1  0  0  0  0
 40 41  4  0  0  0  0
 41 42  4  0  0  0  0
 42 43  4  0  0  0  0
 43 44  1  0  0  0  0
 43 45  4  0  0  0  0
 45 46  1  0  0  0  0
 40 47  4  0  0  0  0
 45 47  4  0  0  0  0
 39 48  2  0  0  0  0
  1 49  1  0  0  0  0
  2 50  1  0  0  0  0
  3 51  1  0  0  0  0
  4 52  1  0  0  0  0
  7 53  1  0  0  0  0
  8 54  1  0  0  0  0
  9 55  1  0  0  0  0
 11 56  1  0  0  0  0
 12 57  1  0  0  0  0
 14 58  1  0  0  0  0
 15 59  1  0  0  0  0
 16 60  1  0  0  0  0
 19 61  1  0  0  0  0
 20 62  1  0  0  0  0
 21 63  1  0  0  0  0
 22 64  1  0  0  0  0
 26 65  1  0  0  0  0
 28 66  1  0  0  0  0
 28 67  1  0  0  0  0
 28 68  1  0  0  0  0
 30 69  1  0  0  0  0
 30 70  1  0  0  0  0
 30 71  1  0  0  0  0
 31 72  1  0  0  0  0
 32 73  1  0  0  0  0
 34 74  1  0  0  0  0
 36 75  1  0  0  0  0
 41 76  1  0  0  0  0
 42 77  1  0  0  0  0
 44 78  1  0  0  0  0
 44 79  1  0  0  0  0
 44 80  1  0  0  0  0
 46 81  1  0  0  0  0
 46 82  1  0  0  0  0
 46 83  1  0  0  0  0
 47 84  1  0  0  0  0
M  END
