70

O     -2.249350    2.441601   -1.305989
C     -2.322201    1.316523   -0.810455
C     -3.545979    0.864048   -0.027687
C     -4.434179    2.021667    0.434499
C     -3.795528    2.949426    1.476985
C     -3.289371    2.273594    2.753967
C     -4.373360    1.534062    3.522009
N     -1.304790    0.408819   -0.992721
C     -0.064178    0.867954   -1.601102
C     -0.273442    0.925124   -3.137549
O      0.077891    2.116287   -3.673735
O     -0.663370    0.024104   -3.866134
N      0.938902   -0.125435   -1.245980
C      2.263165   -0.104340   -1.627290
C      2.823800    1.221271   -2.123536
C      4.346520    1.312261   -1.992382
C      4.793971    1.434460   -0.531919
C      6.314006    1.557895   -0.425229
C      6.761228    1.685755    1.022375
O      2.965314   -1.113801   -1.586065
C      0.326746   -1.313109   -0.648325
C      1.013754   -1.783064    0.627609
C      1.417445   -0.881119    1.627323
C      2.008070   -1.342627    2.804504
C      2.199550   -2.708504    3.000246
C      1.803095   -3.614437    2.018862
C      1.213196   -3.155950    0.840089
C     -1.131499   -0.885512   -0.328361
C     -2.138004   -1.955119   -0.708407
C     -2.579534   -2.856609    0.276111
C     -3.488908   -3.868403   -0.036231
C     -3.965645   -3.998707   -1.337595
C     -3.530407   -3.120351   -2.326394
C     -2.620093   -2.107775   -2.015563
H     -3.255470    0.261703    0.834721
H     -4.136377    0.227931   -0.696828
H     -4.729272    2.627265   -0.431980
H     -5.363454    1.607247    0.843432
H     -4.533665    3.713827    1.751309
H     -2.958508    3.490169    1.019970
H     -2.866308    3.046883    3.406997
H     -2.468027    1.586349    2.522940
H     -5.208018    2.199989    3.761894
H     -4.760712    0.684140    2.953105
H     -3.968946    1.145917    4.462218
H      0.215226    1.851658   -1.210887
H     -0.148759    2.026773   -4.623635
H      2.369294    2.057200   -1.583876
H      2.564203    1.306703   -3.183941
H      4.823672    0.441017   -2.457123
H      4.689905    2.195366   -2.545237
H      4.322194    2.314038   -0.076548
H      4.460084    0.559899    0.038717
H      6.657603    2.434641   -0.986623
H      6.791364    0.678402   -0.872838
H      7.851255    1.769466    1.076176
H      6.458277    0.810348    1.605832
H      6.328781    2.576380    1.489532
H      0.369865   -2.099994   -1.413142
H      1.281684    0.189486    1.493657
H      2.325079   -0.635491    3.566611
H      2.665579   -3.067187    3.914045
H      1.961130   -4.679624    2.167043
H      0.917513   -3.879234    0.082265
H     -1.250636   -0.669770    0.742155
H     -2.213768   -2.779917    1.299115
H     -3.822125   -4.557424    0.735835
H     -4.672442   -4.787058   -1.583472
H     -3.896106   -3.223928   -3.345292
H     -2.296923   -1.443157   -2.812079
