
  xtb     03162223433D
 xtb: 6.3.3 (4ae9cef)
 74 80  0     0  0            999 V2000
   -5.5881    1.0281   -1.5412 C   0  0  0  0  0  0  0  0  0  0  0  0
   -5.3552    2.3265   -1.8907 C   0  0  0  0  0  0  0  0  0  0  0  0
   -4.1783    2.9539   -1.4609 C   0  0  0  0  0  0  0  0  0  0  0  0
   -3.2472    2.2740   -0.7257 C   0  0  0  0  0  0  0  0  0  0  0  0
   -3.4287    0.9147   -0.3768 C   0  0  0  0  0  0  0  0  0  0  0  0
   -4.6542    0.2987   -0.7742 C   0  0  0  0  0  0  0  0  0  0  0  0
   -4.9423   -1.0261   -0.3924 C   0  0  0  0  0  0  0  0  0  0  0  0
   -4.0661   -1.7263    0.3854 C   0  0  0  0  0  0  0  0  0  0  0  0
   -2.8531   -1.1399    0.7565 C   0  0  0  0  0  0  0  0  0  0  0  0
   -2.5006    0.1327    0.3639 C   0  0  0  0  0  0  0  0  0  0  0  0
   -1.0935    0.5211    0.7797 C   0  0  0  0  0  0  0  0  0  0  0  0
   -0.0342   -0.3750    0.0531 C   0  0  0  0  0  0  0  0  0  0  0  0
    0.7884   -1.1668    1.0362 C   0  0  0  0  0  0  0  0  0  0  0  0
    1.6321   -0.4711    1.8698 C   0  0  0  0  0  0  0  0  0  0  0  0
    2.4705   -1.1309    2.7742 C   0  0  0  0  0  0  0  0  0  0  0  0
    2.4681   -2.4951    2.8364 C   0  0  0  0  0  0  0  0  0  0  0  0
    1.5968   -3.2480    2.0240 C   0  0  0  0  0  0  0  0  0  0  0  0
    0.7169   -2.5840    1.1239 C   0  0  0  0  0  0  0  0  0  0  0  0
   -0.1662   -3.3806    0.3608 C   0  0  0  0  0  0  0  0  0  0  0  0
   -0.1586   -4.7440    0.4595 C   0  0  0  0  0  0  0  0  0  0  0  0
    0.7328   -5.3942    1.3243 C   0  0  0  0  0  0  0  0  0  0  0  0
    1.5866   -4.6574    2.0929 C   0  0  0  0  0  0  0  0  0  0  0  0
    0.7957    0.5776   -0.6973 N   0  0  0  0  0  0  0  0  0  0  0  0
    1.9722    0.2612   -1.2373 C   0  0  0  0  0  0  0  0  0  0  0  0
    2.3856   -1.1646   -1.1812 C   0  0  0  0  0  0  0  0  0  0  0  0
    3.5393   -1.6055   -0.6091 C   0  0  0  0  0  0  0  0  0  0  0  0
    3.7864   -3.2806   -0.8418 S   0  0  0  0  0  0  0  0  0  0  0  0
    2.3540   -3.4046   -1.7858 C   0  0  0  0  0  0  0  0  0  0  0  0
    1.7050   -2.2112   -1.8827 C   0  0  0  0  0  0  0  0  0  0  0  0
    0.5571   -1.9372   -2.5532 O   0  0  0  0  0  0  0  0  0  0  0  0
    0.0087   -2.9835   -3.3229 C   0  0  0  0  0  0  0  0  0  0  0  0
    2.7240    1.0689   -1.7902 O   0  0  0  0  0  0  0  0  0  0  0  0
    0.0025    1.8138   -0.7958 C   0  0  0  0  0  0  0  0  0  0  0  0
    0.4813    3.2025   -1.3096 C   0  0  0  0  0  0  0  0  0  0  0  0
    1.6719    3.3421   -1.8025 O   0  0  0  0  0  0  0  0  0  0  0  0
   -0.3430    4.0790   -1.2961 O   0  0  0  0  0  0  0  0  0  0  0  0
   -0.6244    1.8620    0.5027 N   0  0  0  0  0  0  0  0  0  0  0  0
   -0.4365    2.7038    1.5668 C   0  0  0  0  0  0  0  0  0  0  0  0
    0.4167    3.8991    1.3776 C   0  0  0  0  0  0  0  0  0  0  0  0
   -0.0190    5.1727    1.5741 C   0  0  0  0  0  0  0  0  0  0  0  0
    1.2298    6.3238    1.3876 S   0  0  0  0  0  0  0  0  0  0  0  0
    2.3890    5.0872    1.0938 C   0  0  0  0  0  0  0  0  0  0  0  0
    1.8211    3.8502    1.1104 C   0  0  0  0  0  0  0  0  0  0  0  0
    2.4350    2.6457    0.9370 O   0  0  0  0  0  0  0  0  0  0  0  0
    3.8271    2.6821    0.7190 C   0  0  0  0  0  0  0  0  0  0  0  0
   -0.9754    2.4690    2.6287 O   0  0  0  0  0  0  0  0  0  0  0  0
   -6.5024    0.5332   -1.8369 H   0  0  0  0  0  0  0  0  0  0  0  0
   -6.0752    2.8774   -2.4775 H   0  0  0  0  0  0  0  0  0  0  0  0
   -4.0023    3.9899   -1.7076 H   0  0  0  0  0  0  0  0  0  0  0  0
   -2.3804    2.8145   -0.3907 H   0  0  0  0  0  0  0  0  0  0  0  0
   -5.8761   -1.4668   -0.7106 H   0  0  0  0  0  0  0  0  0  0  0  0
   -4.2918   -2.7304    0.7125 H   0  0  0  0  0  0  0  0  0  0  0  0
   -2.1684   -1.7081    1.3701 H   0  0  0  0  0  0  0  0  0  0  0  0
   -1.0298    0.3822    1.8662 H   0  0  0  0  0  0  0  0  0  0  0  0
   -0.5389   -1.0206   -0.6696 H   0  0  0  0  0  0  0  0  0  0  0  0
    1.6717    0.6062    1.8109 H   0  0  0  0  0  0  0  0  0  0  0  0
    3.1228   -0.5508    3.4091 H   0  0  0  0  0  0  0  0  0  0  0  0
    3.1274   -3.0197    3.5124 H   0  0  0  0  0  0  0  0  0  0  0  0
   -0.8748   -2.9146   -0.3061 H   0  0  0  0  0  0  0  0  0  0  0  0
   -0.8476   -5.3311   -0.1309 H   0  0  0  0  0  0  0  0  0  0  0  0
    0.7310   -6.4723    1.3814 H   0  0  0  0  0  0  0  0  0  0  0  0
    2.2709   -5.1421    2.7738 H   0  0  0  0  0  0  0  0  0  0  0  0
    4.2391   -1.0354   -0.0327 H   0  0  0  0  0  0  0  0  0  0  0  0
    2.0846   -4.3537   -2.2001 H   0  0  0  0  0  0  0  0  0  0  0  0
   -0.2768   -3.8305   -2.6916 H   0  0  0  0  0  0  0  0  0  0  0  0
    0.7161   -3.3236   -4.0846 H   0  0  0  0  0  0  0  0  0  0  0  0
   -0.8753   -2.5687   -3.8036 H   0  0  0  0  0  0  0  0  0  0  0  0
   -0.8042    1.5767   -1.5224 H   0  0  0  0  0  0  0  0  0  0  0  0
    2.2100    2.4617   -1.8237 H   0  0  0  0  0  0  0  0  0  0  0  0
   -1.0207    5.4875    1.7842 H   0  0  0  0  0  0  0  0  0  0  0  0
    3.4091    5.3581    0.9160 H   0  0  0  0  0  0  0  0  0  0  0  0
    4.3464    3.1178    1.5781 H   0  0  0  0  0  0  0  0  0  0  0  0
    4.0679    3.2516   -0.1825 H   0  0  0  0  0  0  0  0  0  0  0  0
    4.1374    1.6477    0.5856 H   0  0  0  0  0  0  0  0  0  0  0  0
  1  2  2  0  0  0  0
  2  3  4  0  0  0  0
  3  4  2  0  0  0  0
  4  5  4  0  0  0  0
  1  6  4  0  0  0  0
  5  6  4  0  0  0  0
  6  7  4  0  0  0  0
  7  8  2  0  0  0  0
  8  9  4  0  0  0  0
  5 10  4  0  0  0  0
  9 10  2  0  0  0  0
 10 11  1  0  0  0  0
 11 12  1  0  0  0  0
 12 13  1  0  0  0  0
 13 14  2  0  0  0  0
 14 15  4  0  0  0  0
 15 16  2  0  0  0  0
 16 17  4  0  0  0  0
 13 18  4  0  0  0  0
 17 18  4  0  0  0  0
 18 19  4  0  0  0  0
 19 20  2  0  0  0  0
 20 21  4  0  0  0  0
 17 22  4  0  0  0  0
 21 22  2  0  0  0  0
 12 23  1  0  0  0  0
 23 24  4  0  0  0  0
 24 25  1  0  0  0  0
 25 26  2  0  0  0  0
 26 27  1  0  0  0  0
 27 28  1  0  0  0  0
 25 29  1  0  0  0  0
 28 29  2  0  0  0  0
 29 30  1  0  0  0  0
 30 31  1  0  0  0  0
 24 32  2  0  0  0  0
 23 33  1  0  0  0  0
 33 34  1  0  0  0  0
 34 35  4  0  0  0  0
 34 36  2  0  0  0  0
 11 37  1  0  0  0  0
 33 37  1  0  0  0  0
 37 38  1  0  0  0  0
 38 39  1  0  0  0  0
 39 40  2  0  0  0  0
 40 41  1  0  0  0  0
 41 42  1  0  0  0  0
 39 43  1  0  0  0  0
 42 43  2  0  0  0  0
 43 44  1  0  0  0  0
 44 45  1  0  0  0  0
 38 46  2  0  0  0  0
  1 47  1  0  0  0  0
  2 48  1  0  0  0  0
  3 49  1  0  0  0  0
  4 50  1  0  0  0  0
  7 51  1  0  0  0  0
  8 52  1  0  0  0  0
  9 53  1  0  0  0  0
 11 54  1  0  0  0  0
 12 55  1  0  0  0  0
 14 56  1  0  0  0  0
 15 57  1  0  0  0  0
 16 58  1  0  0  0  0
 19 59  1  0  0  0  0
 20 60  1  0  0  0  0
 21 61  1  0  0  0  0
 22 62  1  0  0  0  0
 26 63  1  0  0  0  0
 28 64  1  0  0  0  0
 31 65  1  0  0  0  0
 31 66  1  0  0  0  0
 31 67  1  0  0  0  0
 33 68  1  0  0  0  0
 35 69  1  0  0  0  0
 40 70  1  0  0  0  0
 42 71  1  0  0  0  0
 45 72  1  0  0  0  0
 45 73  1  0  0  0  0
 45 74  1  0  0  0  0
M  END
