68

C      1.244193   -3.486301    0.677501
O      0.025065   -3.977930    0.293290
C      0.128842   -4.617769   -0.982220
C      2.161774   -4.361094    1.267616
C      3.397963   -3.887812    1.701430
C      3.707286   -2.535753    1.553662
C      2.780915   -1.659710    0.975472
C      1.518744   -2.111566    0.547960
C      0.449258   -1.185513   -0.013558
C     -0.505831   -0.640573    1.090776
C     -1.907949   -1.228964    1.003719
C     -2.403669   -1.958529    2.098835
C     -3.679470   -2.517310    2.068766
C     -4.483506   -2.356673    0.946870
C     -4.009854   -1.639485   -0.148978
C     -2.724798   -1.084230   -0.135330
O     -2.213499   -0.348854   -1.175636
C     -2.713757   -0.676884   -2.471047
N     -0.494561    0.816724    0.897706
C     -1.265234    1.683995    1.638177
C     -1.595590    2.969259    1.044767
C     -1.953314    3.174346   -0.274081
O     -2.194315    4.483854   -0.515378
C     -2.062240    5.131417    0.666002
C     -1.719810    4.250713    1.673710
C     -1.525459    4.583839    3.106259
O     -1.598273    1.393158    2.785454
C      0.622537    1.214227    0.060052
C      1.849204    1.684435    0.910166
O      1.691426    1.616336    2.258027
O      2.918125    2.043057    0.431373
N      0.973408    0.012282   -0.678568
C      1.292700   -0.036310   -2.023550
C      1.681221    1.213354   -2.640851
C      0.823877    2.077583   -3.294517
O      1.490756    3.187419   -3.705033
C      2.793370    3.019616   -3.352376
C      2.985856    1.799962   -2.738446
C      4.273645    1.231906   -2.269397
O      1.264509   -1.077847   -2.681264
H     -0.874629   -4.951012   -1.268186
H      0.484296   -3.919047   -1.749254
H      0.780559   -5.496997   -0.942840
H      1.913988   -5.411390    1.392802
H      4.115181   -4.562612    2.157583
H      4.677303   -2.156864    1.881402
H      3.079836   -0.621709    0.858752
H     -0.094967   -1.746928   -0.777881
H     -0.086422   -0.821753    2.094793
H     -1.801940   -2.092925    2.994454
H     -4.056530   -3.067796    2.924932
H     -5.484076   -2.783880    0.937236
H     -4.673864   -1.511091   -0.997357
H     -3.700339   -0.225797   -2.628677
H     -2.026492   -0.245733   -3.210603
H     -2.742946   -1.760677   -2.639757
H     -2.071150    2.512852   -1.122907
H     -2.253790    6.195230    0.640101
H     -0.722986    3.988586    3.555637
H     -1.282452    5.639567    3.233521
H     -2.453144    4.401797    3.662259
H      0.346754    2.044667   -0.584327
H      0.829681    1.266200    2.561550
H     -0.237565    2.056903   -3.511002
H      3.462649    3.835123   -3.606380
H      4.778565    1.908095   -1.575003
H      4.121072    0.270716   -1.762039
H      4.949859    1.058102   -3.116170
