
  xtb     03162222213D
 xtb: 6.3.3 (4ae9cef)
 68 72  0     0  0            999 V2000
    1.3555   -3.2848    0.8484 C   0  0  0  0  0  0  0  0  0  0  0  0
    0.0714   -3.7135    0.6856 O   0  0  0  0  0  0  0  0  0  0  0  0
   -0.2513   -5.0384    1.0316 C   0  0  0  0  0  0  0  0  0  0  0  0
    2.3858   -4.0465    1.3818 C   0  0  0  0  0  0  0  0  0  0  0  0
    3.6573   -3.5072    1.4993 C   0  0  0  0  0  0  0  0  0  0  0  0
    3.9122   -2.2161    1.0826 C   0  0  0  0  0  0  0  0  0  0  0  0
    2.8862   -1.4519    0.5482 C   0  0  0  0  0  0  0  0  0  0  0  0
    1.6093   -1.9673    0.4334 C   0  0  0  0  0  0  0  0  0  0  0  0
    0.4527   -1.1898   -0.1458 C   0  0  0  0  0  0  0  0  0  0  0  0
   -0.5873   -0.7938    0.9357 C   0  0  0  0  0  0  0  0  0  0  0  0
   -1.9435   -1.3935    0.6834 C   0  0  0  0  0  0  0  0  0  0  0  0
   -2.5049   -2.2668    1.5969 C   0  0  0  0  0  0  0  0  0  0  0  0
   -3.7335   -2.8562    1.3573 C   0  0  0  0  0  0  0  0  0  0  0  0
   -4.4141   -2.5581    0.1930 C   0  0  0  0  0  0  0  0  0  0  0  0
   -3.8745   -1.6784   -0.7298 C   0  0  0  0  0  0  0  0  0  0  0  0
   -2.6386   -1.0903   -0.4960 C   0  0  0  0  0  0  0  0  0  0  0  0
   -2.0320   -0.2113   -1.3508 O   0  0  0  0  0  0  0  0  0  0  0  0
   -2.5772   -0.0483   -2.6378 C   0  0  0  0  0  0  0  0  0  0  0  0
   -0.6123    0.6704    0.8798 N   0  0  0  0  0  0  0  0  0  0  0  0
   -1.6597    1.4018    1.3620 C   0  0  0  0  0  0  0  0  0  0  0  0
   -1.6629    2.8277    0.9455 C   0  0  0  0  0  0  0  0  0  0  0  0
   -2.0692    3.3316   -0.2565 C   0  0  0  0  0  0  0  0  0  0  0  0
   -2.0006    4.6683   -0.2566 O   0  0  0  0  0  0  0  0  0  0  0  0
   -1.5483    5.0413    0.9536 C   0  0  0  0  0  0  0  0  0  0  0  0
   -1.3241    3.9588    1.7511 C   0  0  0  0  0  0  0  0  0  0  0  0
   -0.8279    3.9267    3.1528 C   0  0  0  0  0  0  0  0  0  0  0  0
   -2.4856    0.9287    2.1116 O   0  0  0  0  0  0  0  0  0  0  0  0
    0.4665    1.1751    0.0688 C   0  0  0  0  0  0  0  0  0  0  0  0
    1.6642    1.6478    0.9475 C   0  0  0  0  0  0  0  0  0  0  0  0
    1.4732    1.5640    2.2592 O   0  0  0  0  0  0  0  0  0  0  0  0
    2.6733    2.0705    0.4655 O   0  0  0  0  0  0  0  0  0  0  0  0
    0.8407    0.0642   -0.7619 N   0  0  0  0  0  0  0  0  0  0  0  0
    1.1681    0.1175   -2.0828 C   0  0  0  0  0  0  0  0  0  0  0  0
    1.4672    1.4768   -2.5997 C   0  0  0  0  0  0  0  0  0  0  0  0
    0.6140    2.4488   -3.0347 C   0  0  0  0  0  0  0  0  0  0  0  0
    1.2946    3.5153   -3.4782 O   0  0  0  0  0  0  0  0  0  0  0  0
    2.6032    3.2350   -3.3320 C   0  0  0  0  0  0  0  0  0  0  0  0
    2.7849    1.9944   -2.8009 C   0  0  0  0  0  0  0  0  0  0  0  0
    4.0536    1.3052   -2.4539 C   0  0  0  0  0  0  0  0  0  0  0  0
    1.2683   -0.8860   -2.7543 O   0  0  0  0  0  0  0  0  0  0  0  0
   -1.3104   -5.1462    0.8026 H   0  0  0  0  0  0  0  0  0  0  0  0
    0.3247   -5.7596    0.4436 H   0  0  0  0  0  0  0  0  0  0  0  0
   -0.0911   -5.2270    2.0981 H   0  0  0  0  0  0  0  0  0  0  0  0
    2.2114   -5.0611    1.7029 H   0  0  0  0  0  0  0  0  0  0  0  0
    4.4498   -4.1111    1.9151 H   0  0  0  0  0  0  0  0  0  0  0  0
    4.9036   -1.7996    1.1661 H   0  0  0  0  0  0  0  0  0  0  0  0
    3.0914   -0.4501    0.2062 H   0  0  0  0  0  0  0  0  0  0  0  0
   -0.0149   -1.8152   -0.9149 H   0  0  0  0  0  0  0  0  0  0  0  0
   -0.2407   -1.1211    1.9248 H   0  0  0  0  0  0  0  0  0  0  0  0
   -1.9692   -2.4880    2.5073 H   0  0  0  0  0  0  0  0  0  0  0  0
   -4.1580   -3.5374    2.0785 H   0  0  0  0  0  0  0  0  0  0  0  0
   -5.3765   -3.0058   -0.0056 H   0  0  0  0  0  0  0  0  0  0  0  0
   -4.4290   -1.4528   -1.6268 H   0  0  0  0  0  0  0  0  0  0  0  0
   -3.5323    0.4872   -2.6065 H   0  0  0  0  0  0  0  0  0  0  0  0
   -1.8469    0.5354   -3.1968 H   0  0  0  0  0  0  0  0  0  0  0  0
   -2.7147   -1.0107   -3.1384 H   0  0  0  0  0  0  0  0  0  0  0  0
   -2.4335    2.8453   -1.1393 H   0  0  0  0  0  0  0  0  0  0  0  0
   -1.4314    6.0910    1.1343 H   0  0  0  0  0  0  0  0  0  0  0  0
    0.2316    3.6713    3.1814 H   0  0  0  0  0  0  0  0  0  0  0  0
   -0.9571    4.8997    3.6187 H   0  0  0  0  0  0  0  0  0  0  0  0
   -1.3785    3.1817    3.7239 H   0  0  0  0  0  0  0  0  0  0  0  0
    0.1656    2.0340   -0.5439 H   0  0  0  0  0  0  0  0  0  0  0  0
    0.5972    1.1921    2.4691 H   0  0  0  0  0  0  0  0  0  0  0  0
   -0.4561    2.4938   -3.0901 H   0  0  0  0  0  0  0  0  0  0  0  0
    3.3036    3.9854   -3.6392 H   0  0  0  0  0  0  0  0  0  0  0  0
    4.2300    1.3923   -1.3823 H   0  0  0  0  0  0  0  0  0  0  0  0
    3.9874    0.2495   -2.7090 H   0  0  0  0  0  0  0  0  0  0  0  0
    4.8892    1.7555   -2.9827 H   0  0  0  0  0  0  0  0  0  0  0  0
  1  2  1  0  0  0  0
  2  3  1  0  0  0  0
  1  4  4  0  0  0  0
  4  5  4  0  0  0  0
  5  6  4  0  0  0  0
  6  7  4  0  0  0  0
  1  8  4  0  0  0  0
  7  8  4  0  0  0  0
  8  9  1  0  0  0  0
  9 10  1  0  0  0  0
 10 11  1  0  0  0  0
 11 12  4  0  0  0  0
 12 13  4  0  0  0  0
 13 14  4  0  0  0  0
 14 15  4  0  0  0  0
 11 16  4  0  0  0  0
 15 16  4  0  0  0  0
 16 17  1  0  0  0  0
 17 18  1  0  0  0  0
 10 19  1  0  0  0  0
 19 20  1  0  0  0  0
 20 21  1  0  0  0  0
 21 22  2  0  0  0  0
 22 23  1  0  0  0  0
 23 24  1  0  0  0  0
 21 25  4  0  0  0  0
 24 25  2  0  0  0  0
 25 26  1  0  0  0  0
 20 27  2  0  0  0  0
 19 28  1  0  0  0  0
 28 29  1  0  0  0  0
 29 30  1  0  0  0  0
 29 31  2  0  0  0  0
  9 32  1  0  0  0  0
 28 32  1  0  0  0  0
 32 33  1  0  0  0  0
 33 34  1  0  0  0  0
 34 35  2  0  0  0  0
 35 36  1  0  0  0  0
 36 37  1  0  0  0  0
 34 38  4  0  0  0  0
 37 38  2  0  0  0  0
 38 39  1  0  0  0  0
 33 40  2  0  0  0  0
  3 41  1  0  0  0  0
  3 42  1  0  0  0  0
  3 43  1  0  0  0  0
  4 44  1  0  0  0  0
  5 45  1  0  0  0  0
  6 46  1  0  0  0  0
  7 47  1  0  0  0  0
  9 48  1  0  0  0  0
 10 49  1  0  0  0  0
 12 50  1  0  0  0  0
 13 51  1  0  0  0  0
 14 52  1  0  0  0  0
 15 53  1  0  0  0  0
 18 54  1  0  0  0  0
 18 55  1  0  0  0  0
 18 56  1  0  0  0  0
 22 57  1  0  0  0  0
 24 58  1  0  0  0  0
 26 59  1  0  0  0  0
 26 60  1  0  0  0  0
 26 61  1  0  0  0  0
 28 62  1  0  0  0  0
 30 63  1  0  0  0  0
 35 64  1  0  0  0  0
 37 65  1  0  0  0  0
 39 66  1  0  0  0  0
 39 67  1  0  0  0  0
 39 68  1  0  0  0  0
M  END
