
  xtb     03162222203D
 xtb: 6.3.3 (4ae9cef)
 60 64  0     0  0            999 V2000
    2.1995   -3.4466    1.0191 C   0  0  0  0  0  0  0  0  0  0  0  0
    2.7056   -3.9934    2.1850 C   0  0  0  0  0  0  0  0  0  0  0  0
    2.1825   -3.6218    3.4113 C   0  0  0  0  0  0  0  0  0  0  0  0
    1.1529   -2.6982    3.4672 C   0  0  0  0  0  0  0  0  0  0  0  0
    0.6492   -2.1481    2.3021 C   0  0  0  0  0  0  0  0  0  0  0  0
    1.1644   -2.5229    1.0670 C   0  0  0  0  0  0  0  0  0  0  0  0
    0.6504   -1.9093   -0.2150 C   0  0  0  0  0  0  0  0  0  0  0  0
   -0.8809   -1.8385   -0.2999 C   0  0  0  0  0  0  0  0  0  0  0  0
   -1.4785   -1.9955   -1.6806 C   0  0  0  0  0  0  0  0  0  0  0  0
   -2.8411   -2.2670   -1.7631 C   0  0  0  0  0  0  0  0  0  0  0  0
   -3.4680   -2.3526   -2.9921 C   0  0  0  0  0  0  0  0  0  0  0  0
   -2.7406   -2.1658   -4.1563 C   0  0  0  0  0  0  0  0  0  0  0  0
   -1.3866   -1.8921   -4.0817 C   0  0  0  0  0  0  0  0  0  0  0  0
   -0.7561   -1.8034   -2.8511 C   0  0  0  0  0  0  0  0  0  0  0  0
   -1.1550   -0.4845    0.1840 N   0  0  0  0  0  0  0  0  0  0  0  0
   -2.1714   -0.1791    1.0261 C   0  0  0  0  0  0  0  0  0  0  0  0
   -2.1706    1.2464    1.4969 C   0  0  0  0  0  0  0  0  0  0  0  0
   -1.3882    1.6295    2.5811 C   0  0  0  0  0  0  0  0  0  0  0  0
   -1.4114    2.9417    3.0222 C   0  0  0  0  0  0  0  0  0  0  0  0
   -2.2054    3.8800    2.3860 C   0  0  0  0  0  0  0  0  0  0  0  0
   -2.9848    3.4827    1.3125 C   0  0  0  0  0  0  0  0  0  0  0  0
   -4.0736    4.7648    0.4225 Br  0  0  0  0  0  0  0  0  0  0  0  0
   -2.9841    2.1738    0.8631 C   0  0  0  0  0  0  0  0  0  0  0  0
   -2.9984   -0.9921    1.3726 O   0  0  0  0  0  0  0  0  0  0  0  0
   -0.0940    0.3717   -0.2551 C   0  0  0  0  0  0  0  0  0  0  0  0
   -0.3776    0.9666   -1.6561 C   0  0  0  0  0  0  0  0  0  0  0  0
   -1.6414    1.3573   -1.7649 O   0  0  0  0  0  0  0  0  0  0  0  0
    0.4503    1.0988   -2.5101 O   0  0  0  0  0  0  0  0  0  0  0  0
    1.0552   -0.4999   -0.2822 N   0  0  0  0  0  0  0  0  0  0  0  0
    2.3334   -0.1555   -0.5932 C   0  0  0  0  0  0  0  0  0  0  0  0
    2.6286    1.3094   -0.5206 C   0  0  0  0  0  0  0  0  0  0  0  0
    3.1568    1.9506   -1.6320 C   0  0  0  0  0  0  0  0  0  0  0  0
    3.4501    3.2996   -1.5505 C   0  0  0  0  0  0  0  0  0  0  0  0
    4.1442    4.1936   -3.0768 Br  0  0  0  0  0  0  0  0  0  0  0  0
    3.2500    4.0152   -0.3817 C   0  0  0  0  0  0  0  0  0  0  0  0
    2.7552    3.3578    0.7314 C   0  0  0  0  0  0  0  0  0  0  0  0
    2.4438    2.0107    0.6665 C   0  0  0  0  0  0  0  0  0  0  0  0
    3.1750   -0.9852   -0.8573 O   0  0  0  0  0  0  0  0  0  0  0  0
    2.6181   -3.7267    0.0647 H   0  0  0  0  0  0  0  0  0  0  0  0
    3.5118   -4.7097    2.1352 H   0  0  0  0  0  0  0  0  0  0  0  0
    2.5756   -4.0489    4.3218 H   0  0  0  0  0  0  0  0  0  0  0  0
    0.7395   -2.4043    4.4209 H   0  0  0  0  0  0  0  0  0  0  0  0
   -0.1581   -1.4331    2.3602 H   0  0  0  0  0  0  0  0  0  0  0  0
    1.0866   -2.4534   -1.0575 H   0  0  0  0  0  0  0  0  0  0  0  0
   -1.3594   -2.5432    0.3868 H   0  0  0  0  0  0  0  0  0  0  0  0
   -3.4068   -2.4016   -0.8532 H   0  0  0  0  0  0  0  0  0  0  0  0
   -4.5252   -2.5659   -3.0418 H   0  0  0  0  0  0  0  0  0  0  0  0
   -3.2272   -2.2337   -5.1178 H   0  0  0  0  0  0  0  0  0  0  0  0
   -0.8121   -1.7423   -4.9835 H   0  0  0  0  0  0  0  0  0  0  0  0
    0.2997   -1.5803   -2.8264 H   0  0  0  0  0  0  0  0  0  0  0  0
   -0.7691    0.9011    3.0842 H   0  0  0  0  0  0  0  0  0  0  0  0
   -0.8078    3.2384    3.8664 H   0  0  0  0  0  0  0  0  0  0  0  0
   -2.2240    4.9052    2.7218 H   0  0  0  0  0  0  0  0  0  0  0  0
   -3.6010    1.8738    0.0308 H   0  0  0  0  0  0  0  0  0  0  0  0
    0.0377    1.2277    0.4216 H   0  0  0  0  0  0  0  0  0  0  0  0
   -1.8177    1.7349   -2.6433 H   0  0  0  0  0  0  0  0  0  0  0  0
    3.3168    1.3988   -2.5443 H   0  0  0  0  0  0  0  0  0  0  0  0
    3.4871    5.0672   -0.3411 H   0  0  0  0  0  0  0  0  0  0  0  0
    2.6140    3.9019    1.6530 H   0  0  0  0  0  0  0  0  0  0  0  0
    2.0820    1.4955    1.5452 H   0  0  0  0  0  0  0  0  0  0  0  0
  1  2  4  0  0  0  0
  2  3  4  0  0  0  0
  3  4  4  0  0  0  0
  4  5  4  0  0  0  0
  1  6  4  0  0  0  0
  5  6  4  0  0  0  0
  6  7  1  0  0  0  0
  7  8  1  0  0  0  0
  8  9  1  0  0  0  0
  9 10  4  0  0  0  0
 10 11  4  0  0  0  0
 11 12  4  0  0  0  0
 12 13  4  0  0  0  0
  9 14  4  0  0  0  0
 13 14  4  0  0  0  0
  8 15  1  0  0  0  0
 15 16  4  0  0  0  0
 16 17  1  0  0  0  0
 17 18  4  0  0  0  0
 18 19  4  0  0  0  0
 19 20  4  0  0  0  0
 20 21  4  0  0  0  0
 21 22  1  0  0  0  0
 17 23  4  0  0  0  0
 21 23  4  0  0  0  0
 16 24  2  0  0  0  0
 15 25  1  0  0  0  0
 25 26  1  0  0  0  0
 26 27  1  0  0  0  0
 26 28  2  0  0  0  0
  7 29  1  0  0  0  0
 25 29  1  0  0  0  0
 29 30  4  0  0  0  0
 30 31  1  0  0  0  0
 31 32  4  0  0  0  0
 32 33  4  0  0  0  0
 33 34  1  0  0  0  0
 33 35  4  0  0  0  0
 35 36  4  0  0  0  0
 31 37  4  0  0  0  0
 36 37  4  0  0  0  0
 30 38  2  0  0  0  0
  1 39  1  0  0  0  0
  2 40  1  0  0  0  0
  3 41  1  0  0  0  0
  4 42  1  0  0  0  0
  5 43  1  0  0  0  0
  7 44  1  0  0  0  0
  8 45  1  0  0  0  0
 10 46  1  0  0  0  0
 11 47  1  0  0  0  0
 12 48  1  0  0  0  0
 13 49  1  0  0  0  0
 14 50  1  0  0  0  0
 18 51  1  0  0  0  0
 19 52  1  0  0  0  0
 20 53  1  0  0  0  0
 23 54  1  0  0  0  0
 25 55  1  0  0  0  0
 27 56  1  0  0  0  0
 32 57  1  0  0  0  0
 35 58  1  0  0  0  0
 36 59  1  0  0  0  0
 37 60  1  0  0  0  0
M  END
