
  xtb     03162223273D
 xtb: 6.3.3 (4ae9cef)
 66 70  0     0  0            999 V2000
    1.9380    3.0138   -1.5027 C   0  0  0  0  0  0  0  0  0  0  0  0
    1.3806    4.0896   -0.6115 C   0  0  0  0  0  0  0  0  0  0  0  0
    0.0282    4.1499   -0.6644 F   0  0  0  0  0  0  0  0  0  0  0  0
    1.6777    3.9298    0.6894 F   0  0  0  0  0  0  0  0  0  0  0  0
    1.8069    5.3138   -0.9380 F   0  0  0  0  0  0  0  0  0  0  0  0
    2.8060    3.3887   -2.5206 C   0  0  0  0  0  0  0  0  0  0  0  0
    3.3311    2.4395   -3.3769 C   0  0  0  0  0  0  0  0  0  0  0  0
    2.9867    1.1095   -3.2192 C   0  0  0  0  0  0  0  0  0  0  0  0
    2.1210    0.7365   -2.2084 C   0  0  0  0  0  0  0  0  0  0  0  0
    1.5855    1.6735   -1.3329 C   0  0  0  0  0  0  0  0  0  0  0  0
    0.6393    1.2089   -0.2511 C   0  0  0  0  0  0  0  0  0  0  0  0
   -0.7620    0.8534   -0.8072 C   0  0  0  0  0  0  0  0  0  0  0  0
   -1.7944    1.9069   -0.5051 C   0  0  0  0  0  0  0  0  0  0  0  0
   -2.4333    2.6414   -1.5033 C   0  0  0  0  0  0  0  0  0  0  0  0
   -2.1043    2.4147   -2.9519 C   0  0  0  0  0  0  0  0  0  0  0  0
   -0.7981    2.6435   -3.2243 F   0  0  0  0  0  0  0  0  0  0  0  0
   -2.7951    3.1980   -3.7813 F   0  0  0  0  0  0  0  0  0  0  0  0
   -2.3327    1.1478   -3.3576 F   0  0  0  0  0  0  0  0  0  0  0  0
   -3.3699    3.6114   -1.1717 C   0  0  0  0  0  0  0  0  0  0  0  0
   -3.6773    3.8559    0.1530 C   0  0  0  0  0  0  0  0  0  0  0  0
   -3.0453    3.1356    1.1512 C   0  0  0  0  0  0  0  0  0  0  0  0
   -2.1110    2.1734    0.8213 C   0  0  0  0  0  0  0  0  0  0  0  0
   -1.0824   -0.4105   -0.1388 N   0  0  0  0  0  0  0  0  0  0  0  0
   -2.3530   -0.8923    0.0069 C   0  0  0  0  0  0  0  0  0  0  0  0
   -2.4319   -2.1624    0.8000 C   0  0  0  0  0  0  0  0  0  0  0  0
   -2.2329   -2.1420    2.1764 C   0  0  0  0  0  0  0  0  0  0  0  0
   -2.3393   -3.3137    2.9041 C   0  0  0  0  0  0  0  0  0  0  0  0
   -2.6402   -4.5070    2.2695 C   0  0  0  0  0  0  0  0  0  0  0  0
   -2.8497   -4.5142    0.9015 C   0  0  0  0  0  0  0  0  0  0  0  0
   -3.3230   -6.3256   -0.0748 I   0  0  0  0  0  0  0  0  0  0  0  0
   -2.7532   -3.3506    0.1587 C   0  0  0  0  0  0  0  0  0  0  0  0
   -3.3172   -0.3448   -0.4735 O   0  0  0  0  0  0  0  0  0  0  0  0
    0.1300   -1.0943    0.2161 C   0  0  0  0  0  0  0  0  0  0  0  0
    0.5952   -2.1041   -0.8848 C   0  0  0  0  0  0  0  0  0  0  0  0
   -0.2191   -2.2591   -1.9210 O   0  0  0  0  0  0  0  0  0  0  0  0
    1.6214   -2.7049   -0.7733 O   0  0  0  0  0  0  0  0  0  0  0  0
    1.0882   -0.0294    0.3811 N   0  0  0  0  0  0  0  0  0  0  0  0
    2.3032   -0.0805    1.0020 C   0  0  0  0  0  0  0  0  0  0  0  0
    2.5969   -1.3503    1.7322 C   0  0  0  0  0  0  0  0  0  0  0  0
    3.6803   -2.1191    1.3308 C   0  0  0  0  0  0  0  0  0  0  0  0
    3.9739   -3.2796    2.0202 C   0  0  0  0  0  0  0  0  0  0  0  0
    5.6065   -4.4640    1.4020 I   0  0  0  0  0  0  0  0  0  0  0  0
    3.2224   -3.6760    3.1122 C   0  0  0  0  0  0  0  0  0  0  0  0
    2.1626   -2.8871    3.5253 C   0  0  0  0  0  0  0  0  0  0  0  0
    1.8466   -1.7270    2.8407 C   0  0  0  0  0  0  0  0  0  0  0  0
    3.0632    0.8591    0.9656 O   0  0  0  0  0  0  0  0  0  0  0  0
    3.0708    4.4276   -2.6387 H   0  0  0  0  0  0  0  0  0  0  0  0
    4.0068    2.7402   -4.1618 H   0  0  0  0  0  0  0  0  0  0  0  0
    3.3899    0.3578   -3.8800 H   0  0  0  0  0  0  0  0  0  0  0  0
    1.8740   -0.3076   -2.0902 H   0  0  0  0  0  0  0  0  0  0  0  0
    0.5588    1.9669    0.5337 H   0  0  0  0  0  0  0  0  0  0  0  0
   -0.6747    0.6793   -1.8849 H   0  0  0  0  0  0  0  0  0  0  0  0
   -3.8556    4.1725   -1.9544 H   0  0  0  0  0  0  0  0  0  0  0  0
   -4.4071    4.6094    0.4035 H   0  0  0  0  0  0  0  0  0  0  0  0
   -3.2777    3.3244    2.1880 H   0  0  0  0  0  0  0  0  0  0  0  0
   -1.6201    1.6124    1.6033 H   0  0  0  0  0  0  0  0  0  0  0  0
   -2.0135   -1.2089    2.6745 H   0  0  0  0  0  0  0  0  0  0  0  0
   -2.1907   -3.3011    3.9730 H   0  0  0  0  0  0  0  0  0  0  0  0
   -2.7196   -5.4200    2.8386 H   0  0  0  0  0  0  0  0  0  0  0  0
   -2.9326   -3.3610   -0.9057 H   0  0  0  0  0  0  0  0  0  0  0  0
    0.0233   -1.6823    1.1372 H   0  0  0  0  0  0  0  0  0  0  0  0
   -1.0078   -1.6923   -1.8991 H   0  0  0  0  0  0  0  0  0  0  0  0
    4.2684   -1.8080    0.4823 H   0  0  0  0  0  0  0  0  0  0  0  0
    3.4629   -4.5843    3.6428 H   0  0  0  0  0  0  0  0  0  0  0  0
    1.5837   -3.1808    4.3882 H   0  0  0  0  0  0  0  0  0  0  0  0
    1.0351   -1.1008    3.1844 H   0  0  0  0  0  0  0  0  0  0  0  0
  1  2  1  0  0  0  0
  2  3  1  0  0  0  0
  2  4  1  0  0  0  0
  2  5  1  0  0  0  0
  1  6  4  0  0  0  0
  6  7  4  0  0  0  0
  7  8  4  0  0  0  0
  8  9  4  0  0  0  0
  1 10  4  0  0  0  0
  9 10  4  0  0  0  0
 10 11  1  0  0  0  0
 11 12  1  0  0  0  0
 12 13  1  0  0  0  0
 13 14  4  0  0  0  0
 14 15  1  0  0  0  0
 15 16  1  0  0  0  0
 15 17  1  0  0  0  0
 15 18  1  0  0  0  0
 14 19  4  0  0  0  0
 19 20  4  0  0  0  0
 20 21  4  0  0  0  0
 13 22  4  0  0  0  0
 21 22  4  0  0  0  0
 12 23  1  0  0  0  0
 23 24  1  0  0  0  0
 24 25  1  0  0  0  0
 25 26  4  0  0  0  0
 26 27  4  0  0  0  0
 27 28  4  0  0  0  0
 28 29  4  0  0  0  0
 29 30  1  0  0  0  0
 25 31  4  0  0  0  0
 29 31  4  0  0  0  0
 24 32  2  0  0  0  0
 23 33  1  0  0  0  0
 33 34  1  0  0  0  0
 34 35  1  0  0  0  0
 34 36  2  0  0  0  0
 11 37  1  0  0  0  0
 33 37  1  0  0  0  0
 37 38  1  0  0  0  0
 38 39  1  0  0  0  0
 39 40  4  0  0  0  0
 40 41  4  0  0  0  0
 41 42  1  0  0  0  0
 41 43  4  0  0  0  0
 43 44  4  0  0  0  0
 39 45  4  0  0  0  0
 44 45  4  0  0  0  0
 38 46  2  0  0  0  0
  6 47  1  0  0  0  0
  7 48  1  0  0  0  0
  8 49  1  0  0  0  0
  9 50  1  0  0  0  0
 11 51  1  0  0  0  0
 12 52  1  0  0  0  0
 19 53  1  0  0  0  0
 20 54  1  0  0  0  0
 21 55  1  0  0  0  0
 22 56  1  0  0  0  0
 26 57  1  0  0  0  0
 27 58  1  0  0  0  0
 28 59  1  0  0  0  0
 31 60  1  0  0  0  0
 33 61  1  0  0  0  0
 35 62  1  0  0  0  0
 40 63  1  0  0  0  0
 43 64  1  0  0  0  0
 44 65  1  0  0  0  0
 45 66  1  0  0  0  0
M  END
