54

C      2.228592   -2.129458    0.797809
C      3.308125   -3.016217    0.780185
C      3.742050   -3.565683   -0.423530
C      3.100755   -3.225761   -1.610817
C      2.024129   -2.337009   -1.593153
C      1.566074   -1.776507   -0.388002
C      0.396176   -0.812210   -0.419272
C     -0.635637   -0.825533    0.733914
C     -1.596846   -1.996781    0.631787
C     -2.633795   -2.036455   -0.313080
C     -3.479053   -3.144949   -0.399158
C     -3.298697   -4.229804    0.455300
C     -2.277236   -4.204852    1.399604
C     -1.430815   -3.098377    1.487007
N     -1.267983    0.491350    0.604874
C     -2.082798    0.969065    1.624906
C     -2.504994    2.351167    1.546873
C     -1.989931    3.450474    2.193270
Br    -0.494878    3.447016    3.344726
C     -2.689358    4.650178    1.901255
C     -3.748902    4.419877    1.048837
S     -3.886181    2.765642    0.624127
O     -2.409219    0.259297    2.573893
C     -0.476072    1.348841   -0.278191
C     -1.154076    1.757312   -1.609845
O     -2.317888    1.126987   -1.871370
O     -0.694822    2.532042   -2.436372
N      0.746069    0.607516   -0.590783
C      1.816571    1.117880    0.150848
C      2.674792    2.050258   -0.563415
C      2.992866    2.185622   -1.899800
Br     2.436649    1.085747   -3.336700
C      3.871036    3.272538   -2.165632
C      4.216526    3.942871   -1.015104
S      3.489566    3.253229    0.366928
O      1.921258    0.863614    1.350253
H      1.932132   -1.707341    1.755722
H      3.813158   -3.271307    1.709812
H      4.582428   -4.254033   -0.435253
H      3.439044   -3.649954   -2.552065
H      1.540333   -2.088176   -2.535898
H     -0.157246   -1.048408   -1.342492
H     -0.147221   -0.831993    1.716207
H     -2.802127   -1.200847   -0.987146
H     -4.284065   -3.157283   -1.130603
H     -3.959773   -5.089864    0.390899
H     -2.139511   -5.045946    2.074429
H     -0.641600   -3.100006    2.239118
H     -2.446857    5.630522    2.295690
H     -4.458226    5.140471    0.664358
H     -0.240755    2.285774    0.238962
H     -2.597441    1.483581   -2.740109
H      4.240573    3.553477   -3.145171
H      4.865099    4.802404   -0.918633
