108

C      2.686830    2.122292   -2.204095
C      3.477695    1.982022   -3.346842
C      3.293683    0.884031   -4.187033
C      2.315934   -0.065848   -3.884772
C      1.516458    0.080065   -2.745061
C      1.699853    1.171262   -1.882795
C      0.854235    1.401779   -0.636071
C     -0.456754    2.176182   -0.985580
C     -0.504103    3.586868   -0.402654
C     -0.167634    3.871355    0.929930
C     -0.206877    5.182640    1.412114
C     -0.598603    6.226856    0.578700
C     -0.944070    5.965367   -0.736938
C     -0.903704    4.656000   -1.225374
N     -1.535878    1.307582   -0.518709
C     -2.824724    1.447045   -0.982457
C     -3.809266    0.417870   -0.602060
C     -3.856722   -0.774893   -1.323785
C     -4.766504   -1.778216   -0.967715
C     -4.871944   -3.104905   -1.732984
C     -6.291038   -3.265611   -2.317316
C     -4.569101   -4.276064   -0.778509
C     -3.889775   -3.211892   -2.918874
C     -5.605056   -1.536383    0.147848
C     -5.581665   -0.334773    0.885705
C     -6.507644   -0.072514    2.088317
C     -7.263688   -1.335080    2.572283
C     -7.560216    0.985133    1.689102
C     -5.699871    0.452786    3.299037
C     -4.677954    0.651751    0.464595
O     -3.209171    2.371881   -1.689778
C     -1.025901    0.225858    0.319818
C     -1.265245    0.503878    1.847107
O     -2.133547    1.502656    2.117763
O     -0.747726   -0.076034    2.794574
N      0.401591    0.185003    0.046723
C      1.129790   -0.911152    0.460795
C      2.609991   -0.852464    0.513224
C      3.269723    0.197710    1.158462
C      4.670752    0.243799    1.226341
C      5.374442    1.449428    1.875027
C      6.913613    1.324244    1.937292
C      5.056743    2.713642    1.046332
C      4.875251    1.646791    3.320215
C      5.376728   -0.836243    0.660425
C      4.735374   -1.942365    0.059593
C      5.565801   -3.119192   -0.481471
C      6.536042   -2.619058   -1.574207
C      6.376421   -3.746076    0.672181
C      4.717763   -4.250526   -1.108442
C      3.336951   -1.923115   -0.003731
O      0.581078   -1.962797    0.796229
H      2.841939    2.990165   -1.566534
H      4.223368    2.734248   -3.578098
H      3.917028    0.764591   -5.077213
H      2.179062   -0.927298   -4.536704
H      0.754473   -0.674376   -2.536332
H      1.464730    1.956892    0.084429
H     -0.575234    2.255545   -2.075605
H      0.124769    3.086674    1.619925
H      0.069758    5.392288    2.437721
H     -0.646186    7.240862    0.963485
H     -1.253987    6.771920   -1.390983
H     -1.213382    4.472429   -2.255325
H     -3.177564   -0.892736   -2.165311
H     -6.361767   -4.183676   -2.911608
H     -7.062970   -3.321041   -1.541874
H     -6.543797   -2.421502   -2.972072
H     -5.323492   -4.372563    0.010070
H     -3.595134   -4.153155   -0.297401
H     -4.546662   -5.224289   -1.323686
H     -4.064380   -2.422409   -3.659994
H     -3.993803   -4.174970   -3.430490
H     -2.848361   -3.138719   -2.592398
H     -6.293811   -2.325375    0.434615
H     -7.868428   -1.120343    3.462368
H     -7.945860   -1.722961    1.806175
H     -6.571159   -2.143349    2.837195
H     -8.229319    1.213302    2.529186
H     -7.096476    1.925306    1.376429
H     -8.181687    0.625463    0.856975
H     -5.255635    1.437936    3.112955
H     -4.878927   -0.228045    3.551038
H     -6.336175    0.551983    4.188866
H     -4.637617    1.619398    0.958989
H     -1.498947   -0.734698    0.072912
H     -2.142589    1.565192    3.094760
H      2.685719    0.977903    1.631820
H      7.220584    0.451423    2.526259
H      7.371285    2.211757    2.392699
H      7.350044    1.223842    0.938819
H      3.978337    2.933370    1.022053
H      5.561376    3.596401    1.461404
H      5.395893    2.598462    0.006880
H      3.809162    1.890497    3.355359
H      5.401985    2.471573    3.811849
H      5.033048    0.740518    3.915643
H      6.463781   -0.838394    0.703479
H      7.098500   -3.454691   -2.009373
H      5.991749   -2.129863   -2.390025
H      7.261955   -1.899291   -1.183304
H      5.713655   -4.152243    1.442078
H      7.007102   -4.567989    0.316434
H      7.034359   -3.016638    1.158964
H      4.005478   -4.681573   -0.393907
H      5.356217   -5.070894   -1.454876
H      4.147838   -3.900486   -1.971455
H      2.781791   -2.744940   -0.449747
