
  xtb     03172200453D
 xtb: 6.3.3 (4ae9cef)
108112  0     0  0            999 V2000
    2.7588    1.3174   -2.0293 C   0  0  0  0  0  0  0  0  0  0  0  0
    3.3076    0.7146   -3.1466 C   0  0  0  0  0  0  0  0  0  0  0  0
    2.6188   -0.2910   -3.8025 C   0  0  0  0  0  0  0  0  0  0  0  0
    1.3748   -0.6866   -3.3409 C   0  0  0  0  0  0  0  0  0  0  0  0
    0.8249   -0.0805   -2.2271 C   0  0  0  0  0  0  0  0  0  0  0  0
    1.5152    0.9222   -1.5579 C   0  0  0  0  0  0  0  0  0  0  0  0
    0.9172    1.5824   -0.3394 C   0  0  0  0  0  0  0  0  0  0  0  0
   -0.2859    2.4783   -0.7170 C   0  0  0  0  0  0  0  0  0  0  0  0
   -0.4018    3.7854    0.0348 C   0  0  0  0  0  0  0  0  0  0  0  0
    0.1877    4.0136    1.2710 C   0  0  0  0  0  0  0  0  0  0  0  0
   -0.0140    5.2153    1.9301 C   0  0  0  0  0  0  0  0  0  0  0  0
   -0.8092    6.1973    1.3671 C   0  0  0  0  0  0  0  0  0  0  0  0
   -1.4076    5.9729    0.1382 C   0  0  0  0  0  0  0  0  0  0  0  0
   -1.2052    4.7757   -0.5225 C   0  0  0  0  0  0  0  0  0  0  0  0
   -1.4337    1.6322   -0.4103 N   0  0  0  0  0  0  0  0  0  0  0  0
   -2.5168    1.5230   -1.2247 C   0  0  0  0  0  0  0  0  0  0  0  0
   -3.4660    0.4478   -0.8048 C   0  0  0  0  0  0  0  0  0  0  0  0
   -3.2016   -0.8655   -1.1755 C   0  0  0  0  0  0  0  0  0  0  0  0
   -4.0352   -1.8909   -0.7608 C   0  0  0  0  0  0  0  0  0  0  0  0
   -3.7705   -3.3485   -1.1046 C   0  0  0  0  0  0  0  0  0  0  0  0
   -4.9794   -3.9186   -1.8593 C   0  0  0  0  0  0  0  0  0  0  0  0
   -3.5463   -4.1286    0.1987 C   0  0  0  0  0  0  0  0  0  0  0  0
   -2.5287   -3.5289   -1.9823 C   0  0  0  0  0  0  0  0  0  0  0  0
   -5.1383   -1.5599    0.0245 C   0  0  0  0  0  0  0  0  0  0  0  0
   -5.4308   -0.2554    0.3919 C   0  0  0  0  0  0  0  0  0  0  0  0
   -6.6291    0.1129    1.2533 C   0  0  0  0  0  0  0  0  0  0  0  0
   -7.4615   -1.1028    1.6694 C   0  0  0  0  0  0  0  0  0  0  0  0
   -7.5347    1.0671    0.4628 C   0  0  0  0  0  0  0  0  0  0  0  0
   -6.1255    0.8067    2.5272 C   0  0  0  0  0  0  0  0  0  0  0  0
   -4.5737    0.7539   -0.0383 C   0  0  0  0  0  0  0  0  0  0  0  0
   -2.6638    2.2392   -2.1921 O   0  0  0  0  0  0  0  0  0  0  0  0
   -1.0877    0.8061    0.7083 C   0  0  0  0  0  0  0  0  0  0  0  0
   -1.3978    1.4801    2.0551 C   0  0  0  0  0  0  0  0  0  0  0  0
   -2.6164    2.0150    2.0629 O   0  0  0  0  0  0  0  0  0  0  0  0
   -0.6519    1.5032    2.9920 O   0  0  0  0  0  0  0  0  0  0  0  0
    0.3359    0.6003    0.5701 N   0  0  0  0  0  0  0  0  0  0  0  0
    0.8747   -0.6190    0.8642 C   0  0  0  0  0  0  0  0  0  0  0  0
    2.3497   -0.6892    0.6841 C   0  0  0  0  0  0  0  0  0  0  0  0
    3.1638    0.2154    1.3441 C   0  0  0  0  0  0  0  0  0  0  0  0
    4.5442    0.1662    1.1879 C   0  0  0  0  0  0  0  0  0  0  0  0
    5.4091    1.1748    1.9296 C   0  0  0  0  0  0  0  0  0  0  0  0
    6.9032    1.0018    1.6438 C   0  0  0  0  0  0  0  0  0  0  0  0
    5.0026    2.5922    1.5008 C   0  0  0  0  0  0  0  0  0  0  0  0
    5.1868    1.0043    3.4387 C   0  0  0  0  0  0  0  0  0  0  0  0
    5.0671   -0.8079    0.3501 C   0  0  0  0  0  0  0  0  0  0  0  0
    4.2693   -1.7409   -0.3095 C   0  0  0  0  0  0  0  0  0  0  0  0
    4.9287   -2.7923   -1.1885 C   0  0  0  0  0  0  0  0  0  0  0  0
    5.7829   -2.1014   -2.2603 C   0  0  0  0  0  0  0  0  0  0  0  0
    5.8155   -3.6844   -0.3085 C   0  0  0  0  0  0  0  0  0  0  0  0
    3.9055   -3.6796   -1.9019 C   0  0  0  0  0  0  0  0  0  0  0  0
    2.8988   -1.6789   -0.1198 C   0  0  0  0  0  0  0  0  0  0  0  0
    0.1869   -1.5389    1.2597 O   0  0  0  0  0  0  0  0  0  0  0  0
    3.3009    2.0969   -1.5143 H   0  0  0  0  0  0  0  0  0  0  0  0
    4.2765    1.0306   -3.5042 H   0  0  0  0  0  0  0  0  0  0  0  0
    3.0486   -0.7654   -4.6727 H   0  0  0  0  0  0  0  0  0  0  0  0
    0.8313   -1.4689   -3.8501 H   0  0  0  0  0  0  0  0  0  0  0  0
   -0.1436   -0.3953   -1.8681 H   0  0  0  0  0  0  0  0  0  0  0  0
    1.6931    2.1714    0.1576 H   0  0  0  0  0  0  0  0  0  0  0  0
   -0.3061    2.6838   -1.7931 H   0  0  0  0  0  0  0  0  0  0  0  0
    0.7977    3.2595    1.7438 H   0  0  0  0  0  0  0  0  0  0  0  0
    0.4509    5.3783    2.8913 H   0  0  0  0  0  0  0  0  0  0  0  0
   -0.9642    7.1322    1.8851 H   0  0  0  0  0  0  0  0  0  0  0  0
   -2.0329    6.7326   -0.3067 H   0  0  0  0  0  0  0  0  0  0  0  0
   -1.6802    4.5919   -1.4746 H   0  0  0  0  0  0  0  0  0  0  0  0
   -2.3397   -1.0635   -1.7915 H   0  0  0  0  0  0  0  0  0  0  0  0
   -4.7934   -4.9546   -2.1347 H   0  0  0  0  0  0  0  0  0  0  0  0
   -5.8797   -3.8864   -1.2521 H   0  0  0  0  0  0  0  0  0  0  0  0
   -5.1595   -3.3468   -2.7673 H   0  0  0  0  0  0  0  0  0  0  0  0
   -4.4186   -4.0830    0.8449 H   0  0  0  0  0  0  0  0  0  0  0  0
   -2.6965   -3.7173    0.7396 H   0  0  0  0  0  0  0  0  0  0  0  0
   -3.3410   -5.1738   -0.0227 H   0  0  0  0  0  0  0  0  0  0  0  0
   -2.6322   -2.9947   -2.9244 H   0  0  0  0  0  0  0  0  0  0  0  0
   -2.3968   -4.5852   -2.2084 H   0  0  0  0  0  0  0  0  0  0  0  0
   -1.6348   -3.1850   -1.4665 H   0  0  0  0  0  0  0  0  0  0  0  0
   -5.7836   -2.3555    0.3558 H   0  0  0  0  0  0  0  0  0  0  0  0
   -8.2978   -0.7749    2.2837 H   0  0  0  0  0  0  0  0  0  0  0  0
   -7.8667   -1.6166    0.8007 H   0  0  0  0  0  0  0  0  0  0  0  0
   -6.8693   -1.8015    2.2561 H   0  0  0  0  0  0  0  0  0  0  0  0
   -8.4019    1.3425    1.0595 H   0  0  0  0  0  0  0  0  0  0  0  0
   -7.0070    1.9755    0.1869 H   0  0  0  0  0  0  0  0  0  0  0  0
   -7.8816    0.5856   -0.4491 H   0  0  0  0  0  0  0  0  0  0  0  0
   -5.5849    1.7186    2.2905 H   0  0  0  0  0  0  0  0  0  0  0  0
   -5.4573    0.1450    3.0749 H   0  0  0  0  0  0  0  0  0  0  0  0
   -6.9643    1.0622    3.1714 H   0  0  0  0  0  0  0  0  0  0  0  0
   -4.7484    1.7851    0.2239 H   0  0  0  0  0  0  0  0  0  0  0  0
   -1.6145   -0.1606    0.7070 H   0  0  0  0  0  0  0  0  0  0  0  0
   -2.8070    2.4186    2.9257 H   0  0  0  0  0  0  0  0  0  0  0  0
    2.7053    0.9401    1.9996 H   0  0  0  0  0  0  0  0  0  0  0  0
    7.2502    0.0199    1.9569 H   0  0  0  0  0  0  0  0  0  0  0  0
    7.4667    1.7483    2.2000 H   0  0  0  0  0  0  0  0  0  0  0  0
    7.1193    1.1384    0.5865 H   0  0  0  0  0  0  0  0  0  0  0  0
    3.9659    2.8009    1.7504 H   0  0  0  0  0  0  0  0  0  0  0  0
    5.6254    3.3288    2.0039 H   0  0  0  0  0  0  0  0  0  0  0  0
    5.1297    2.7115    0.4264 H   0  0  0  0  0  0  0  0  0  0  0  0
    4.1488    1.1754    3.7090 H   0  0  0  0  0  0  0  0  0  0  0  0
    5.8043    1.7096    3.9910 H   0  0  0  0  0  0  0  0  0  0  0  0
    5.4552   -0.0044    3.7454 H   0  0  0  0  0  0  0  0  0  0  0  0
    6.1332   -0.8584    0.2083 H   0  0  0  0  0  0  0  0  0  0  0  0
    6.2291   -2.8450   -2.9173 H   0  0  0  0  0  0  0  0  0  0  0  0
    5.1624   -1.4368   -2.8570 H   0  0  0  0  0  0  0  0  0  0  0  0
    6.5855   -1.5174   -1.8189 H   0  0  0  0  0  0  0  0  0  0  0  0
    5.2170   -4.1610    0.4648 H   0  0  0  0  0  0  0  0  0  0  0  0
    6.2839   -4.4600   -0.9109 H   0  0  0  0  0  0  0  0  0  0  0  0
    6.5994   -3.1077    0.1750 H   0  0  0  0  0  0  0  0  0  0  0  0
    3.3039   -4.2361   -1.1878 H   0  0  0  0  0  0  0  0  0  0  0  0
    4.4251   -4.3975   -2.5336 H   0  0  0  0  0  0  0  0  0  0  0  0
    3.2506   -3.0827   -2.5329 H   0  0  0  0  0  0  0  0  0  0  0  0
    2.2273   -2.3752   -0.5927 H   0  0  0  0  0  0  0  0  0  0  0  0
  1  2  4  0  0  0  0
  2  3  4  0  0  0  0
  3  4  4  0  0  0  0
  4  5  4  0  0  0  0
  1  6  4  0  0  0  0
  5  6  4  0  0  0  0
  6  7  1  0  0  0  0
  7  8  1  0  0  0  0
  8  9  1  0  0  0  0
  9 10  4  0  0  0  0
 10 11  4  0  0  0  0
 11 12  4  0  0  0  0
 12 13  4  0  0  0  0
  9 14  4  0  0  0  0
 13 14  4  0  0  0  0
  8 15  1  0  0  0  0
 15 16  4  0  0  0  0
 16 17  1  0  0  0  0
 17 18  4  0  0  0  0
 18 19  4  0  0  0  0
 19 20  1  0  0  0  0
 20 21  1  0  0  0  0
 20 22  1  0  0  0  0
 20 23  1  0  0  0  0
 19 24  4  0  0  0  0
 24 25  4  0  0  0  0
 25 26  1  0  0  0  0
 26 27  1  0  0  0  0
 26 28  1  0  0  0  0
 26 29  1  0  0  0  0
 17 30  4  0  0  0  0
 25 30  4  0  0  0  0
 16 31  2  0  0  0  0
 15 32  1  0  0  0  0
 32 33  1  0  0  0  0
 33 34  1  0  0  0  0
 33 35  2  0  0  0  0
  7 36  1  0  0  0  0
 32 36  1  0  0  0  0
 36 37  1  0  0  0  0
 37 38  1  0  0  0  0
 38 39  4  0  0  0  0
 39 40  4  0  0  0  0
 40 41  1  0  0  0  0
 41 42  1  0  0  0  0
 41 43  1  0  0  0  0
 41 44  1  0  0  0  0
 40 45  4  0  0  0  0
 45 46  4  0  0  0  0
 46 47  1  0  0  0  0
 47 48  1  0  0  0  0
 47 49  1  0  0  0  0
 47 50  1  0  0  0  0
 38 51  4  0  0  0  0
 46 51  4  0  0  0  0
 37 52  2  0  0  0  0
  1 53  1  0  0  0  0
  2 54  1  0  0  0  0
  3 55  1  0  0  0  0
  4 56  1  0  0  0  0
  5 57  1  0  0  0  0
  7 58  1  0  0  0  0
  8 59  1  0  0  0  0
 10 60  1  0  0  0  0
 11 61  1  0  0  0  0
 12 62  1  0  0  0  0
 13 63  1  0  0  0  0
 14 64  1  0  0  0  0
 18 65  1  0  0  0  0
 21 66  1  0  0  0  0
 21 67  1  0  0  0  0
 21 68  1  0  0  0  0
 22 69  1  0  0  0  0
 22 70  1  0  0  0  0
 22 71  1  0  0  0  0
 23 72  1  0  0  0  0
 23 73  1  0  0  0  0
 23 74  1  0  0  0  0
 24 75  1  0  0  0  0
 27 76  1  0  0  0  0
 27 77  1  0  0  0  0
 27 78  1  0  0  0  0
 28 79  1  0  0  0  0
 28 80  1  0  0  0  0
 28 81  1  0  0  0  0
 29 82  1  0  0  0  0
 29 83  1  0  0  0  0
 29 84  1  0  0  0  0
 30 85  1  0  0  0  0
 32 86  1  0  0  0  0
 34 87  1  0  0  0  0
 39 88  1  0  0  0  0
 42 89  1  0  0  0  0
 42 90  1  0  0  0  0
 42 91  1  0  0  0  0
 43 92  1  0  0  0  0
 43 93  1  0  0  0  0
 43 94  1  0  0  0  0
 44 95  1  0  0  0  0
 44 96  1  0  0  0  0
 44 97  1  0  0  0  0
 45 98  1  0  0  0  0
 48 99  1  0  0  0  0
 48100  1  0  0  0  0
 48101  1  0  0  0  0
 49102  1  0  0  0  0
 49103  1  0  0  0  0
 49104  1  0  0  0  0
 50105  1  0  0  0  0
 50106  1  0  0  0  0
 50107  1  0  0  0  0
 51108  1  0  0  0  0
M  END
