86

C      0.526544   -4.447085    1.373806
C      0.638971   -5.133460    0.020591
F     -0.346927   -4.730595   -0.834288
F      1.812015   -4.901384   -0.627549
F      0.521437   -6.493977    0.086485
C      0.434085   -5.258815    2.529384
C      0.312438   -4.692919    3.797074
C      0.280539   -3.313484    3.937962
C      0.367484   -2.497060    2.809091
C      0.495169   -3.034934    1.514621
C      0.596772   -2.085379    0.314831
C     -0.710505   -1.272975    0.057736
C     -1.495675   -1.778538   -1.149289
C     -1.160721   -1.556158   -2.510305
C      0.042931   -0.760544   -2.983385
F      0.342610   -0.973976   -4.296263
F      1.191776   -1.051055   -2.316825
F     -0.131118    0.580460   -2.868621
C     -1.998445   -2.097797   -3.513246
C     -3.119304   -2.855741   -3.195704
C     -3.436828   -3.091192   -1.865714
C     -2.638257   -2.558299   -0.856336
N     -0.302321    0.124756   -0.010945
C     -1.038519    1.277117   -0.224846
C     -2.520975    1.274544   -0.328655
C     -3.098089    2.182219   -1.232723
C     -4.484664    2.363332   -1.275199
C     -5.349327    1.622955   -0.448783
C     -6.818568    1.844639   -0.467478
C     -7.600070    1.716756    0.700404
C     -8.983181    1.955034    0.691923
C     -9.616189    2.352317   -0.485928
C     -8.872057    2.475190   -1.661674
C     -7.493060    2.219081   -1.655777
C     -4.750133    0.695554    0.432581
C     -3.356539    0.550914    0.521683
O     -0.473732    2.364586   -0.316141
C      1.109822    0.285397    0.299115
C      1.263065    1.115388    1.601956
O      2.127554    2.143924    1.469929
O      0.702472    0.917703    2.670708
N      1.632189   -1.066602    0.489378
C      2.967567   -1.422730    0.418500
C      3.975592   -0.352442    0.337380
C      4.258878    0.250281   -0.891500
C      5.208975    1.273136   -0.945989
C      5.891643    1.693921    0.210502
C      6.865081    2.794190    0.145026
C      7.996295    2.707201   -0.684231
C      8.903544    3.766147   -0.778533
C      8.697801    4.927184   -0.037171
C      7.583401    5.031925    0.794237
C      6.674319    3.974151    0.880861
C      5.611470    1.043628    1.425266
C      4.663318    0.018418    1.493903
O      3.369750   -2.582398    0.414059
H      0.469328   -6.345436    2.441326
H      0.263956   -5.326589    4.682377
H      0.200990   -2.862240    4.923615
H      0.345133   -1.424655    2.960307
H      0.882927   -2.652509   -0.574532
H     -1.343428   -1.343209    0.945525
H     -1.767951   -1.934979   -4.566293
H     -3.739067   -3.270817   -3.985889
H     -4.303599   -3.693842   -1.614718
H     -2.921344   -2.760366    0.176944
H     -2.462306    2.793960   -1.868300
H     -4.869621    3.133058   -1.950550
H     -7.138606    1.434810    1.651130
H     -9.562725    1.840414    1.603105
H    -10.685025    2.558992   -0.493005
H     -9.361253    2.788803   -2.582707
H     -6.945364    2.316332   -2.594897
H     -5.365110    0.081943    1.095936
H     -2.960251   -0.099883    1.295743
H      1.593132    0.792291   -0.539563
H      2.044242    2.653254    2.303793
H      3.752696   -0.066516   -1.798536
H      5.407853    1.757522   -1.902166
H      8.178926    1.803112   -1.260971
H      9.771142    3.676589   -1.429391
H      9.400945    5.752962   -0.109801
H      7.416801    5.940101    1.367130
H      5.804174    4.082434    1.526609
H      6.154991    1.325701    2.326748
H      4.468111   -0.483749    2.441355
