66

C     -1.814036   -1.953630   -2.268555
C     -2.244134   -3.088911   -1.361425
F     -1.217606   -3.511092   -0.564221
F     -3.260602   -2.764242   -0.520456
F     -2.658550   -4.203004   -2.033824
C     -2.012491   -2.091468   -3.657578
C     -1.599555   -1.103237   -4.548427
C     -0.974358    0.041316   -4.068496
C     -0.777775    0.205432   -2.697851
C     -1.197238   -0.775748   -1.772546
C     -0.972098   -0.549224   -0.270439
C      0.542818   -0.533437    0.081404
C      0.921238   -1.603308    1.106309
C      1.602170   -2.798586    0.755777
C      1.976454   -3.199501   -0.658424
F      3.270265   -2.902541   -0.962215
F      1.843296   -4.541848   -0.872533
F      1.216746   -2.614866   -1.624251
C      1.970622   -3.704261    1.776098
C      1.634264   -3.475925    3.106867
C      0.908747   -2.346032    3.442677
C      0.557235   -1.424543    2.455247
N      0.803795    0.846841    0.530932
C      2.024003    1.494382    0.533888
C      3.248755    0.693657    0.371953
C      3.814346    0.061961    1.484359
C      4.985463   -0.682042    1.329542
C      5.587347   -0.771045    0.069431
I      7.326660   -1.886459   -0.159771
C      5.024513   -0.128829   -1.037294
C      3.851489    0.613095   -0.886478
O      2.136533    2.708827    0.659511
C     -0.403439    1.666636    0.535005
C     -0.597332    2.281214    1.948451
O     -0.672633    3.631612    1.921519
O     -0.703010    1.689025    3.012573
N     -1.478611    0.758855    0.152713
C     -2.823874    1.051217    0.051438
C     -3.274134    2.435275    0.279870
C     -4.071523    2.707711    1.395794
C     -4.522986    4.010339    1.620194
C     -4.186876    5.023568    0.719598
I     -4.859217    6.962938    1.053276
C     -3.410821    4.744476   -0.409226
C     -2.957212    3.442768   -0.635657
O     -3.681110    0.215997   -0.212500
H     -2.493737   -2.985079   -4.057171
H     -1.758464   -1.229473   -5.616834
H     -0.646125    0.808866   -4.764240
H     -0.288290    1.115812   -2.358140
H     -1.518563   -1.293886    0.315918
H      1.165080   -0.654861   -0.807058
H      2.517765   -4.612348    1.524183
H      1.917458   -4.190746    3.876592
H      0.619415   -2.169889    4.476762
H     -0.016727   -0.556226    2.763388
H      3.351732    0.153468    2.464637
H      5.420901   -1.174614    2.196018
H      5.488352   -0.200346   -2.018296
H      3.416849    1.123412   -1.742180
H     -0.310324    2.458976   -0.215045
H     -0.721741    3.897082    2.861305
H     -4.343622    1.910999    2.084021
H     -5.138697    4.216923    2.492502
H     -3.160994    5.526676   -1.121935
H     -2.375808    3.221887   -1.526686
