
  xtb     03162221233D
 xtb: 6.3.3 (4ae9cef)
 86 92  0     0  0            999 V2000
    1.2116    1.4172   -1.9730 C   0  0  0  0  0  0  0  0  0  0  0  0
    1.8659    2.3831   -1.0236 C   0  0  0  0  0  0  0  0  0  0  0  0
    2.9821    1.9009   -0.4572 F   0  0  0  0  0  0  0  0  0  0  0  0
    2.2224    3.5313   -1.6166 F   0  0  0  0  0  0  0  0  0  0  0  0
    1.0586    2.7397   -0.0018 F   0  0  0  0  0  0  0  0  0  0  0  0
    1.1453    1.7628   -3.3194 C   0  0  0  0  0  0  0  0  0  0  0  0
    0.5299    0.9232   -4.2270 C   0  0  0  0  0  0  0  0  0  0  0  0
   -0.0326   -0.2644   -3.7902 C   0  0  0  0  0  0  0  0  0  0  0  0
    0.0418   -0.6145   -2.4568 C   0  0  0  0  0  0  0  0  0  0  0  0
    0.6787    0.2065   -1.5289 C   0  0  0  0  0  0  0  0  0  0  0  0
    0.6857   -0.2378   -0.0833 C   0  0  0  0  0  0  0  0  0  0  0  0
   -0.7594   -0.1145    0.4784 C   0  0  0  0  0  0  0  0  0  0  0  0
   -1.0172    1.0895    1.3559 C   0  0  0  0  0  0  0  0  0  0  0  0
   -0.6542    1.2269    2.6981 C   0  0  0  0  0  0  0  0  0  0  0  0
    0.1139    0.1759    3.4568 C   0  0  0  0  0  0  0  0  0  0  0  0
    1.1580   -0.3228    2.7779 F   0  0  0  0  0  0  0  0  0  0  0  0
   -0.6474   -0.8729    3.8155 F   0  0  0  0  0  0  0  0  0  0  0  0
    0.6294    0.6518    4.6017 F   0  0  0  0  0  0  0  0  0  0  0  0
   -1.0253    2.3628    3.4124 C   0  0  0  0  0  0  0  0  0  0  0  0
   -1.7319    3.3817    2.8061 C   0  0  0  0  0  0  0  0  0  0  0  0
   -2.0624    3.2758    1.4669 C   0  0  0  0  0  0  0  0  0  0  0  0
   -1.7093    2.1433    0.7620 C   0  0  0  0  0  0  0  0  0  0  0  0
   -1.0278   -1.3983    1.0963 N   0  0  0  0  0  0  0  0  0  0  0  0
   -2.2634   -1.8296    1.4789 C   0  0  0  0  0  0  0  0  0  0  0  0
   -3.2681   -0.7462    1.6231 C   0  0  0  0  0  0  0  0  0  0  0  0
   -3.9547   -0.0416    0.6591 C   0  0  0  0  0  0  0  0  0  0  0  0
   -3.9287   -0.1217   -0.7882 C   0  0  0  0  0  0  0  0  0  0  0  0
   -4.3984    0.9452   -1.5575 C   0  0  0  0  0  0  0  0  0  0  0  0
   -4.3279    0.8959   -2.9359 C   0  0  0  0  0  0  0  0  0  0  0  0
   -3.7939   -0.2154   -3.5686 C   0  0  0  0  0  0  0  0  0  0  0  0
   -3.3436   -1.2864   -2.8134 C   0  0  0  0  0  0  0  0  0  0  0  0
   -3.4102   -1.2462   -1.4341 C   0  0  0  0  0  0  0  0  0  0  0  0
   -4.7363    0.8911    1.2555 O   0  0  0  0  0  0  0  0  0  0  0  0
   -4.5737    0.7817    2.5891 C   0  0  0  0  0  0  0  0  0  0  0  0
   -5.3263    1.7065    3.4739 C   0  0  0  0  0  0  0  0  0  0  0  0
   -3.6864   -0.2145    2.8706 C   0  0  0  0  0  0  0  0  0  0  0  0
   -2.4803   -2.9929    1.7345 O   0  0  0  0  0  0  0  0  0  0  0  0
    0.0601   -2.3365    0.9252 C   0  0  0  0  0  0  0  0  0  0  0  0
   -0.4022   -3.7007    0.3702 C   0  0  0  0  0  0  0  0  0  0  0  0
   -1.0446   -3.5540   -0.7973 O   0  0  0  0  0  0  0  0  0  0  0  0
   -0.2293   -4.7439    0.9187 O   0  0  0  0  0  0  0  0  0  0  0  0
    0.9650   -1.6565    0.0268 N   0  0  0  0  0  0  0  0  0  0  0  0
    1.8750   -2.3685   -0.6949 C   0  0  0  0  0  0  0  0  0  0  0  0
    2.9192   -1.5634   -1.3620 C   0  0  0  0  0  0  0  0  0  0  0  0
    3.9338   -0.8532   -0.7554 C   0  0  0  0  0  0  0  0  0  0  0  0
    4.2867   -0.6888    0.6425 C   0  0  0  0  0  0  0  0  0  0  0  0
    5.1259    0.3572    1.0297 C   0  0  0  0  0  0  0  0  0  0  0  0
    5.4559    0.5298    2.3591 C   0  0  0  0  0  0  0  0  0  0  0  0
    4.9612   -0.3376    3.3197 C   0  0  0  0  0  0  0  0  0  0  0  0
    4.1470   -1.3920    2.9404 C   0  0  0  0  0  0  0  0  0  0  0  0
    3.8133   -1.5733    1.6122 C   0  0  0  0  0  0  0  0  0  0  0  0
    4.6969   -0.2670   -1.7048 O   0  0  0  0  0  0  0  0  0  0  0  0
    4.2016   -0.6048   -2.9125 C   0  0  0  0  0  0  0  0  0  0  0  0
    4.8690   -0.0729   -4.1285 C   0  0  0  0  0  0  0  0  0  0  0  0
    3.1162   -1.4145   -2.7608 C   0  0  0  0  0  0  0  0  0  0  0  0
    1.8172   -3.5801   -0.7518 O   0  0  0  0  0  0  0  0  0  0  0  0
    1.5736    2.6957   -3.6510 H   0  0  0  0  0  0  0  0  0  0  0  0
    0.4856    1.2006   -5.2683 H   0  0  0  0  0  0  0  0  0  0  0  0
   -0.5279   -0.9202   -4.4891 H   0  0  0  0  0  0  0  0  0  0  0  0
   -0.3887   -1.5463   -2.1222 H   0  0  0  0  0  0  0  0  0  0  0  0
    1.3991    0.3364    0.5169 H   0  0  0  0  0  0  0  0  0  0  0  0
   -1.4323   -0.0095   -0.3856 H   0  0  0  0  0  0  0  0  0  0  0  0
   -0.7517    2.4464    4.4525 H   0  0  0  0  0  0  0  0  0  0  0  0
   -2.0139    4.2528    3.3762 H   0  0  0  0  0  0  0  0  0  0  0  0
   -2.6023    4.0683    0.9723 H   0  0  0  0  0  0  0  0  0  0  0  0
   -1.9817    2.0625   -0.2801 H   0  0  0  0  0  0  0  0  0  0  0  0
   -4.8124    1.8086   -1.0592 H   0  0  0  0  0  0  0  0  0  0  0  0
   -4.6908    1.7280   -3.5210 H   0  0  0  0  0  0  0  0  0  0  0  0
   -3.7400   -0.2499   -4.6464 H   0  0  0  0  0  0  0  0  0  0  0  0
   -2.9450   -2.1631   -3.3013 H   0  0  0  0  0  0  0  0  0  0  0  0
   -3.0743   -2.0897   -0.8520 H   0  0  0  0  0  0  0  0  0  0  0  0
   -5.0297    2.7376    3.2830 H   0  0  0  0  0  0  0  0  0  0  0  0
   -5.1239    1.4633    4.5120 H   0  0  0  0  0  0  0  0  0  0  0  0
   -6.3960    1.6236    3.2875 H   0  0  0  0  0  0  0  0  0  0  0  0
   -3.3564   -0.5420    3.8342 H   0  0  0  0  0  0  0  0  0  0  0  0
    0.5490   -2.5513    1.8906 H   0  0  0  0  0  0  0  0  0  0  0  0
   -1.3103   -4.4291   -1.1210 H   0  0  0  0  0  0  0  0  0  0  0  0
    5.5017    1.0337    0.2783 H   0  0  0  0  0  0  0  0  0  0  0  0
    6.1010    1.3462    2.6492 H   0  0  0  0  0  0  0  0  0  0  0  0
    5.2165   -0.1976    4.3596 H   0  0  0  0  0  0  0  0  0  0  0  0
    3.7736   -2.0813    3.6825 H   0  0  0  0  0  0  0  0  0  0  0  0
    3.2073   -2.4167    1.3220 H   0  0  0  0  0  0  0  0  0  0  0  0
    4.3335   -0.4033   -5.0131 H   0  0  0  0  0  0  0  0  0  0  0  0
    4.8880    1.0160   -4.1038 H   0  0  0  0  0  0  0  0  0  0  0  0
    5.8987   -0.4243   -4.1814 H   0  0  0  0  0  0  0  0  0  0  0  0
    2.5179   -1.8480   -3.5350 H   0  0  0  0  0  0  0  0  0  0  0  0
  1  2  1  0  0  0  0
  2  3  1  0  0  0  0
  2  4  1  0  0  0  0
  2  5  1  0  0  0  0
  1  6  4  0  0  0  0
  6  7  4  0  0  0  0
  7  8  4  0  0  0  0
  8  9  4  0  0  0  0
  1 10  4  0  0  0  0
  9 10  4  0  0  0  0
 10 11  1  0  0  0  0
 11 12  1  0  0  0  0
 12 13  1  0  0  0  0
 13 14  4  0  0  0  0
 14 15  1  0  0  0  0
 15 16  1  0  0  0  0
 15 17  1  0  0  0  0
 15 18  1  0  0  0  0
 14 19  4  0  0  0  0
 19 20  4  0  0  0  0
 20 21  4  0  0  0  0
 13 22  4  0  0  0  0
 21 22  4  0  0  0  0
 12 23  1  0  0  0  0
 23 24  1  0  0  0  0
 24 25  1  0  0  0  0
 25 26  4  0  0  0  0
 26 27  1  0  0  0  0
 27 28  4  0  0  0  0
 28 29  4  0  0  0  0
 29 30  4  0  0  0  0
 30 31  4  0  0  0  0
 27 32  4  0  0  0  0
 31 32  4  0  0  0  0
 26 33  1  0  0  0  0
 33 34  1  0  0  0  0
 34 35  1  0  0  0  0
 25 36  4  0  0  0  0
 34 36  2  0  0  0  0
 24 37  2  0  0  0  0
 23 38  1  0  0  0  0
 38 39  1  0  0  0  0
 39 40  1  0  0  0  0
 39 41  2  0  0  0  0
 11 42  1  0  0  0  0
 38 42  1  0  0  0  0
 42 43  1  0  0  0  0
 43 44  1  0  0  0  0
 44 45  4  0  0  0  0
 45 46  1  0  0  0  0
 46 47  4  0  0  0  0
 47 48  4  0  0  0  0
 48 49  4  0  0  0  0
 49 50  4  0  0  0  0
 46 51  4  0  0  0  0
 50 51  4  0  0  0  0
 45 52  1  0  0  0  0
 52 53  1  0  0  0  0
 53 54  1  0  0  0  0
 44 55  4  0  0  0  0
 53 55  2  0  0  0  0
 43 56  2  0  0  0  0
  6 57  1  0  0  0  0
  7 58  1  0  0  0  0
  8 59  1  0  0  0  0
  9 60  1  0  0  0  0
 11 61  1  0  0  0  0
 12 62  1  0  0  0  0
 19 63  1  0  0  0  0
 20 64  1  0  0  0  0
 21 65  1  0  0  0  0
 22 66  1  0  0  0  0
 28 67  1  0  0  0  0
 29 68  1  0  0  0  0
 30 69  1  0  0  0  0
 31 70  1  0  0  0  0
 32 71  1  0  0  0  0
 35 72  1  0  0  0  0
 35 73  1  0  0  0  0
 35 74  1  0  0  0  0
 36 75  1  0  0  0  0
 38 76  1  0  0  0  0
 40 77  1  0  0  0  0
 47 78  1  0  0  0  0
 48 79  1  0  0  0  0
 49 80  1  0  0  0  0
 50 81  1  0  0  0  0
 51 82  1  0  0  0  0
 54 83  1  0  0  0  0
 54 84  1  0  0  0  0
 54 85  1  0  0  0  0
 55 86  1  0  0  0  0
M  END
