
  xtb     03162223263D
 xtb: 6.3.3 (4ae9cef)
 84 92  0     0  0            999 V2000
   -0.5948   -3.4732    4.2395 C   0  0  0  0  0  0  0  0  0  0  0  0
   -0.9441   -4.4591    3.3623 C   0  0  0  0  0  0  0  0  0  0  0  0
   -0.7026   -4.2885    1.9922 C   0  0  0  0  0  0  0  0  0  0  0  0
   -0.1260   -3.1415    1.5233 C   0  0  0  0  0  0  0  0  0  0  0  0
    0.2326   -2.0916    2.3972 C   0  0  0  0  0  0  0  0  0  0  0  0
   -0.0062   -2.2733    3.7878 C   0  0  0  0  0  0  0  0  0  0  0  0
    0.3349   -1.2500    4.6958 C   0  0  0  0  0  0  0  0  0  0  0  0
    0.8721   -0.0779    4.2487 C   0  0  0  0  0  0  0  0  0  0  0  0
    1.0849    0.1179    2.8785 C   0  0  0  0  0  0  0  0  0  0  0  0
    0.7959   -0.8613    1.9627 C   0  0  0  0  0  0  0  0  0  0  0  0
    0.9757   -0.5826    0.4914 C   0  0  0  0  0  0  0  0  0  0  0  0
   -0.3364   -0.0166   -0.1007 C   0  0  0  0  0  0  0  0  0  0  0  0
   -1.1556   -1.0363   -0.8490 C   0  0  0  0  0  0  0  0  0  0  0  0
   -0.7098   -1.4570   -2.0777 C   0  0  0  0  0  0  0  0  0  0  0  0
   -1.4543   -2.3461   -2.8609 C   0  0  0  0  0  0  0  0  0  0  0  0
   -2.6611   -2.7990   -2.4114 C   0  0  0  0  0  0  0  0  0  0  0  0
   -3.1461   -2.4160   -1.1443 C   0  0  0  0  0  0  0  0  0  0  0  0
   -2.3760   -1.5438   -0.3265 C   0  0  0  0  0  0  0  0  0  0  0  0
   -2.8710   -1.2392    0.9602 C   0  0  0  0  0  0  0  0  0  0  0  0
   -4.0707   -1.7298    1.3927 C   0  0  0  0  0  0  0  0  0  0  0  0
   -4.8464   -2.5530    0.5660 C   0  0  0  0  0  0  0  0  0  0  0  0
   -4.3861   -2.8948   -0.6725 C   0  0  0  0  0  0  0  0  0  0  0  0
    0.1065    1.0782   -0.9548 N   0  0  0  0  0  0  0  0  0  0  0  0
   -0.7079    2.0529   -1.4492 C   0  0  0  0  0  0  0  0  0  0  0  0
   -2.1537    1.6625   -1.4021 C   0  0  0  0  0  0  0  0  0  0  0  0
   -2.6987    1.0163   -2.5294 C   0  0  0  0  0  0  0  0  0  0  0  0
   -3.9826    0.5552   -2.5047 C   0  0  0  0  0  0  0  0  0  0  0  0
   -4.7866    0.7166   -1.3571 C   0  0  0  0  0  0  0  0  0  0  0  0
   -6.0988    0.2070   -1.2835 C   0  0  0  0  0  0  0  0  0  0  0  0
   -6.8527    0.3800   -0.1571 C   0  0  0  0  0  0  0  0  0  0  0  0
   -6.3317    1.0771    0.9439 C   0  0  0  0  0  0  0  0  0  0  0  0
   -5.0637    1.5845    0.9030 C   0  0  0  0  0  0  0  0  0  0  0  0
   -4.2564    1.4125   -0.2401 C   0  0  0  0  0  0  0  0  0  0  0  0
   -2.9274    1.8813   -0.2939 C   0  0  0  0  0  0  0  0  0  0  0  0
   -0.2784    3.0848   -1.9139 O   0  0  0  0  0  0  0  0  0  0  0  0
    1.5416    1.2324   -0.9175 C   0  0  0  0  0  0  0  0  0  0  0  0
    2.1789    0.6744   -2.2100 C   0  0  0  0  0  0  0  0  0  0  0  0
    1.7693    1.3349   -3.2822 O   0  0  0  0  0  0  0  0  0  0  0  0
    2.9477   -0.2468   -2.2360 O   0  0  0  0  0  0  0  0  0  0  0  0
    1.9551    0.4670    0.2281 N   0  0  0  0  0  0  0  0  0  0  0  0
    3.2715    0.2289    0.5454 C   0  0  0  0  0  0  0  0  0  0  0  0
    4.2166    1.3033    0.1292 C   0  0  0  0  0  0  0  0  0  0  0  0
    5.3609    0.9630   -0.5450 C   0  0  0  0  0  0  0  0  0  0  0  0
    6.2862    1.9487   -0.9414 C   0  0  0  0  0  0  0  0  0  0  0  0
    7.4609    1.6286   -1.6540 C   0  0  0  0  0  0  0  0  0  0  0  0
    8.3424    2.6068   -2.0200 C   0  0  0  0  0  0  0  0  0  0  0  0
    8.0902    3.9485   -1.6919 C   0  0  0  0  0  0  0  0  0  0  0  0
    6.9608    4.2907   -1.0019 C   0  0  0  0  0  0  0  0  0  0  0  0
    6.0318    3.3057   -0.6088 C   0  0  0  0  0  0  0  0  0  0  0  0
    4.8619    3.6227    0.1145 C   0  0  0  0  0  0  0  0  0  0  0  0
    3.9735    2.6500    0.4717 C   0  0  0  0  0  0  0  0  0  0  0  0
    3.6091   -0.7483    1.1745 O   0  0  0  0  0  0  0  0  0  0  0  0
   -0.7662   -3.5935    5.2999 H   0  0  0  0  0  0  0  0  0  0  0  0
   -1.3993   -5.3728    3.7148 H   0  0  0  0  0  0  0  0  0  0  0  0
   -0.9741   -5.0744    1.3028 H   0  0  0  0  0  0  0  0  0  0  0  0
    0.0497   -3.0463    0.4638 H   0  0  0  0  0  0  0  0  0  0  0  0
    0.1573   -1.4105    5.7495 H   0  0  0  0  0  0  0  0  0  0  0  0
    1.1314    0.7092    4.9411 H   0  0  0  0  0  0  0  0  0  0  0  0
    1.4949    1.0590    2.5435 H   0  0  0  0  0  0  0  0  0  0  0  0
    1.2881   -1.4928   -0.0348 H   0  0  0  0  0  0  0  0  0  0  0  0
   -0.9277    0.4140    0.7136 H   0  0  0  0  0  0  0  0  0  0  0  0
    0.2307   -1.0853   -2.4581 H   0  0  0  0  0  0  0  0  0  0  0  0
   -1.0716   -2.6544   -3.8224 H   0  0  0  0  0  0  0  0  0  0  0  0
   -3.2588   -3.4665   -3.0151 H   0  0  0  0  0  0  0  0  0  0  0  0
   -2.2928   -0.6259    1.6332 H   0  0  0  0  0  0  0  0  0  0  0  0
   -4.4275   -1.4825    2.3812 H   0  0  0  0  0  0  0  0  0  0  0  0
   -5.7981   -2.9201    0.9198 H   0  0  0  0  0  0  0  0  0  0  0  0
   -4.9631   -3.5457   -1.3137 H   0  0  0  0  0  0  0  0  0  0  0  0
   -2.0802    0.8864   -3.4046 H   0  0  0  0  0  0  0  0  0  0  0  0
   -4.3977    0.0480   -3.3634 H   0  0  0  0  0  0  0  0  0  0  0  0
   -6.4961   -0.3241   -2.1365 H   0  0  0  0  0  0  0  0  0  0  0  0
   -7.8571   -0.0142   -0.1069 H   0  0  0  0  0  0  0  0  0  0  0  0
   -6.9429    1.2071    1.8250 H   0  0  0  0  0  0  0  0  0  0  0  0
   -4.6572    2.1183    1.7503 H   0  0  0  0  0  0  0  0  0  0  0  0
   -2.5252    2.4062    0.5620 H   0  0  0  0  0  0  0  0  0  0  0  0
    1.7979    2.3000   -0.8599 H   0  0  0  0  0  0  0  0  0  0  0  0
    2.1815    0.9915   -4.0926 H   0  0  0  0  0  0  0  0  0  0  0  0
    5.5451   -0.0725   -0.7887 H   0  0  0  0  0  0  0  0  0  0  0  0
    7.6487    0.5942   -1.9024 H   0  0  0  0  0  0  0  0  0  0  0  0
    9.2410    2.3558   -2.5643 H   0  0  0  0  0  0  0  0  0  0  0  0
    8.7983    4.7080   -1.9893 H   0  0  0  0  0  0  0  0  0  0  0  0
    6.7630    5.3221   -0.7465 H   0  0  0  0  0  0  0  0  0  0  0  0
    4.6818    4.6536    0.3840 H   0  0  0  0  0  0  0  0  0  0  0  0
    3.0913    2.9012    1.0435 H   0  0  0  0  0  0  0  0  0  0  0  0
  1  2  2  0  0  0  0
  2  3  4  0  0  0  0
  3  4  2  0  0  0  0
  4  5  4  0  0  0  0
  1  6  4  0  0  0  0
  5  6  4  0  0  0  0
  6  7  4  0  0  0  0
  7  8  2  0  0  0  0
  8  9  4  0  0  0  0
  5 10  4  0  0  0  0
  9 10  2  0  0  0  0
 10 11  1  0  0  0  0
 11 12  1  0  0  0  0
 12 13  1  0  0  0  0
 13 14  2  0  0  0  0
 14 15  4  0  0  0  0
 15 16  2  0  0  0  0
 16 17  4  0  0  0  0
 13 18  4  0  0  0  0
 17 18  4  0  0  0  0
 18 19  4  0  0  0  0
 19 20  2  0  0  0  0
 20 21  4  0  0  0  0
 17 22  4  0  0  0  0
 21 22  2  0  0  0  0
 12 23  1  0  0  0  0
 23 24  1  0  0  0  0
 24 25  1  0  0  0  0
 25 26  4  0  0  0  0
 26 27  2  0  0  0  0
 27 28  4  0  0  0  0
 28 29  4  0  0  0  0
 29 30  2  0  0  0  0
 30 31  4  0  0  0  0
 31 32  2  0  0  0  0
 28 33  4  0  0  0  0
 32 33  4  0  0  0  0
 25 34  2  0  0  0  0
 33 34  4  0  0  0  0
 24 35  2  0  0  0  0
 23 36  1  0  0  0  0
 36 37  1  0  0  0  0
 37 38  1  0  0  0  0
 37 39  2  0  0  0  0
 11 40  1  0  0  0  0
 36 40  1  0  0  0  0
 40 41  1  0  0  0  0
 41 42  1  0  0  0  0
 42 43  2  0  0  0  0
 43 44  4  0  0  0  0
 44 45  4  0  0  0  0
 45 46  2  0  0  0  0
 46 47  4  0  0  0  0
 47 48  2  0  0  0  0
 44 49  4  0  0  0  0
 48 49  4  0  0  0  0
 49 50  4  0  0  0  0
 42 51  4  0  0  0  0
 50 51  2  0  0  0  0
 41 52  2  0  0  0  0
  1 53  1  0  0  0  0
  2 54  1  0  0  0  0
  3 55  1  0  0  0  0
  4 56  1  0  0  0  0
  7 57  1  0  0  0  0
  8 58  1  0  0  0  0
  9 59  1  0  0  0  0
 11 60  1  0  0  0  0
 12 61  1  0  0  0  0
 14 62  1  0  0  0  0
 15 63  1  0  0  0  0
 16 64  1  0  0  0  0
 19 65  1  0  0  0  0
 20 66  1  0  0  0  0
 21 67  1  0  0  0  0
 22 68  1  0  0  0  0
 26 69  1  0  0  0  0
 27 70  1  0  0  0  0
 29 71  1  0  0  0  0
 30 72  1  0  0  0  0
 31 73  1  0  0  0  0
 32 74  1  0  0  0  0
 34 75  1  0  0  0  0
 36 76  1  0  0  0  0
 38 77  1  0  0  0  0
 43 78  1  0  0  0  0
 45 79  1  0  0  0  0
 46 80  1  0  0  0  0
 47 81  1  0  0  0  0
 48 82  1  0  0  0  0
 50 83  1  0  0  0  0
 51 84  1  0  0  0  0
M  END
