60

O     -0.404176   -2.133159    0.795692
C     -1.135253   -1.328701    0.229605
C     -2.611500   -1.394285    0.434325
C     -3.507026   -0.914332   -0.531270
C     -4.884444   -0.988910   -0.307889
C     -5.363427   -1.553595    0.873651
Br    -7.227135   -1.649783    1.174529
C     -4.480998   -2.053548    1.830739
C     -3.103911   -1.977936    1.608778
N     -0.671611   -0.380362   -0.684153
C      0.620675   -0.695162   -1.282178
C      0.832867   -2.074588   -1.984911
O     -0.296397   -2.807628   -2.116939
O      1.861787   -2.475721   -2.508245
N      1.607654    0.038552   -0.489195
C      2.251089   -0.610425    0.573365
C      3.020292   -1.834986    0.285252
C      4.065778   -1.803014   -0.643756
C      4.821595   -2.955066   -0.867542
C      4.535194   -4.121420   -0.154180
Br     5.557274   -5.681072   -0.461888
C      3.511009   -4.145111    0.792575
C      2.756653   -2.993783    1.021087
O      2.303750   -0.175652    1.722067
C      0.977234    1.326293   -0.136667
C      1.424357    2.481121   -1.034658
C      2.345755    2.322951   -2.082089
C      2.731672    3.412793   -2.865869
C      2.209610    4.678517   -2.610978
C      1.308947    4.858354   -1.565807
C      0.924427    3.770719   -0.779820
C     -0.569124    1.038613   -0.255845
C     -1.389634    1.465707    0.949153
C     -1.018399    1.123193    2.261024
C     -1.796038    1.520646    3.351275
C     -2.957610    2.262567    3.147849
C     -3.343316    2.608224    1.854621
C     -2.565338    2.214596    0.762827
H     -3.143806   -0.483525   -1.460135
H     -5.572253   -0.605121   -1.057359
H     -4.851512   -2.499700    2.750002
H     -2.414099   -2.366323    2.356572
H      0.578890   -0.090459   -2.206310
H      0.004308   -3.637645   -2.543820
H      4.292443   -0.891061   -1.189960
H      5.628411   -2.935192   -1.596050
H      3.294551   -5.048379    1.356869
H      1.963052   -2.997671    1.765066
H      1.259151    1.629964    0.877474
H      2.785483    1.353308   -2.300669
H      3.449422    3.275220   -3.671333
H      2.515822    5.525618   -3.218121
H      0.912367    5.849347   -1.354997
H      0.236532    3.944157    0.047054
H     -0.949598    1.593084   -1.126769
H     -0.125961    0.526752    2.452045
H     -1.494374    1.244111    4.360002
H     -3.563954    2.567084    3.998305
H     -4.253786    3.180879    1.695568
H     -2.893367    2.490945   -0.237968
