
  xtb     03162222393D
 xtb: 6.3.3 (4ae9cef)
 60 64  0     0  0            999 V2000
   -1.3588   -2.6081   -0.9223 O   0  0  0  0  0  0  0  0  0  0  0  0
   -1.6064   -1.4377   -0.6856 C   0  0  0  0  0  0  0  0  0  0  0  0
   -2.9734   -0.9343   -0.3789 C   0  0  0  0  0  0  0  0  0  0  0  0
   -3.5815    0.0489   -1.1495 C   0  0  0  0  0  0  0  0  0  0  0  0
   -4.8357    0.5194   -0.8086 C   0  0  0  0  0  0  0  0  0  0  0  0
   -5.4688    0.0027    0.3095 C   0  0  0  0  0  0  0  0  0  0  0  0
   -7.1601    0.6990    0.8221 Br  0  0  0  0  0  0  0  0  0  0  0  0
   -4.8942   -1.0067    1.0631 C   0  0  0  0  0  0  0  0  0  0  0  0
   -3.6484   -1.4839    0.7051 C   0  0  0  0  0  0  0  0  0  0  0  0
   -0.6181   -0.5162   -0.6871 N   0  0  0  0  0  0  0  0  0  0  0  0
    0.7451   -0.9863   -0.8755 C   0  0  0  0  0  0  0  0  0  0  0  0
    0.8736   -2.3970   -0.2561 C   0  0  0  0  0  0  0  0  0  0  0  0
    1.2863   -3.2914   -1.1435 O   0  0  0  0  0  0  0  0  0  0  0  0
    0.7239   -2.6090    0.9166 O   0  0  0  0  0  0  0  0  0  0  0  0
    1.5432    0.0032   -0.2018 N   0  0  0  0  0  0  0  0  0  0  0  0
    2.7230   -0.1789    0.4558 C   0  0  0  0  0  0  0  0  0  0  0  0
    3.4490   -1.4469    0.1541 C   0  0  0  0  0  0  0  0  0  0  0  0
    3.8132   -1.7743   -1.1472 C   0  0  0  0  0  0  0  0  0  0  0  0
    4.5390   -2.9233   -1.4008 C   0  0  0  0  0  0  0  0  0  0  0  0
    4.8908   -3.7443   -0.3427 C   0  0  0  0  0  0  0  0  0  0  0  0
    5.8597   -5.3448   -0.6915 Br  0  0  0  0  0  0  0  0  0  0  0  0
    4.5548   -3.4241    0.9626 C   0  0  0  0  0  0  0  0  0  0  0  0
    3.8451   -2.2641    1.2076 C   0  0  0  0  0  0  0  0  0  0  0  0
    3.1702    0.6652    1.2023 O   0  0  0  0  0  0  0  0  0  0  0  0
    0.8007    1.2343    0.0043 C   0  0  0  0  0  0  0  0  0  0  0  0
    1.1722    2.3235   -0.9764 C   0  0  0  0  0  0  0  0  0  0  0  0
    1.9708    2.0874   -2.0841 C   0  0  0  0  0  0  0  0  0  0  0  0
    2.2623    3.1128   -2.9681 C   0  0  0  0  0  0  0  0  0  0  0  0
    1.7524    4.3807   -2.7561 C   0  0  0  0  0  0  0  0  0  0  0  0
    0.9539    4.6236   -1.6504 C   0  0  0  0  0  0  0  0  0  0  0  0
    0.6674    3.6017   -0.7649 C   0  0  0  0  0  0  0  0  0  0  0  0
   -0.6855    0.8308   -0.1411 C   0  0  0  0  0  0  0  0  0  0  0  0
   -1.4253    0.8770    1.1729 C   0  0  0  0  0  0  0  0  0  0  0  0
   -1.1208   -0.0304    2.1807 C   0  0  0  0  0  0  0  0  0  0  0  0
   -1.8163    0.0050    3.3756 C   0  0  0  0  0  0  0  0  0  0  0  0
   -2.8126    0.9459    3.5764 C   0  0  0  0  0  0  0  0  0  0  0  0
   -3.1065    1.8619    2.5811 C   0  0  0  0  0  0  0  0  0  0  0  0
   -2.4131    1.8290    1.3845 C   0  0  0  0  0  0  0  0  0  0  0  0
   -3.0811    0.4426   -2.0216 H   0  0  0  0  0  0  0  0  0  0  0  0
   -5.3149    1.2854   -1.3988 H   0  0  0  0  0  0  0  0  0  0  0  0
   -5.4126   -1.4110    1.9184 H   0  0  0  0  0  0  0  0  0  0  0  0
   -3.1801   -2.2697    1.2767 H   0  0  0  0  0  0  0  0  0  0  0  0
    0.9720   -1.0587   -1.9530 H   0  0  0  0  0  0  0  0  0  0  0  0
    1.2710   -4.1828   -0.7603 H   0  0  0  0  0  0  0  0  0  0  0  0
    3.5445   -1.1274   -1.9684 H   0  0  0  0  0  0  0  0  0  0  0  0
    4.8248   -3.1812   -2.4086 H   0  0  0  0  0  0  0  0  0  0  0  0
    4.8484   -4.0707    1.7750 H   0  0  0  0  0  0  0  0  0  0  0  0
    3.5795   -1.9909    2.2166 H   0  0  0  0  0  0  0  0  0  0  0  0
    1.0142    1.5903    1.0199 H   0  0  0  0  0  0  0  0  0  0  0  0
    2.3798    1.1031   -2.2546 H   0  0  0  0  0  0  0  0  0  0  0  0
    2.8901    2.9178   -3.8248 H   0  0  0  0  0  0  0  0  0  0  0  0
    1.9792    5.1788   -3.4468 H   0  0  0  0  0  0  0  0  0  0  0  0
    0.5582    5.6128   -1.4754 H   0  0  0  0  0  0  0  0  0  0  0  0
    0.0523    3.7910    0.1032 H   0  0  0  0  0  0  0  0  0  0  0  0
   -1.1758    1.4974   -0.8619 H   0  0  0  0  0  0  0  0  0  0  0  0
   -0.3563   -0.7777    2.0250 H   0  0  0  0  0  0  0  0  0  0  0  0
   -1.5799   -0.7074    4.1513 H   0  0  0  0  0  0  0  0  0  0  0  0
   -3.3585    0.9669    4.5075 H   0  0  0  0  0  0  0  0  0  0  0  0
   -3.8796    2.6000    2.7335 H   0  0  0  0  0  0  0  0  0  0  0  0
   -2.6463    2.5409    0.6051 H   0  0  0  0  0  0  0  0  0  0  0  0
  1  2  2  0  0  0  0
  2  3  1  0  0  0  0
  3  4  4  0  0  0  0
  4  5  4  0  0  0  0
  5  6  4  0  0  0  0
  6  7  1  0  0  0  0
  6  8  4  0  0  0  0
  3  9  4  0  0  0  0
  8  9  4  0  0  0  0
  2 10  4  0  0  0  0
 10 11  1  0  0  0  0
 11 12  1  0  0  0  0
 12 13  1  0  0  0  0
 12 14  2  0  0  0  0
 11 15  1  0  0  0  0
 15 16  1  0  0  0  0
 16 17  1  0  0  0  0
 17 18  4  0  0  0  0
 18 19  4  0  0  0  0
 19 20  4  0  0  0  0
 20 21  1  0  0  0  0
 20 22  4  0  0  0  0
 17 23  4  0  0  0  0
 22 23  4  0  0  0  0
 16 24  2  0  0  0  0
 15 25  1  0  0  0  0
 25 26  1  0  0  0  0
 26 27  4  0  0  0  0
 27 28  4  0  0  0  0
 28 29  4  0  0  0  0
 29 30  4  0  0  0  0
 26 31  4  0  0  0  0
 30 31  4  0  0  0  0
 10 32  1  0  0  0  0
 25 32  1  0  0  0  0
 32 33  1  0  0  0  0
 33 34  4  0  0  0  0
 34 35  4  0  0  0  0
 35 36  4  0  0  0  0
 36 37  4  0  0  0  0
 33 38  4  0  0  0  0
 37 38  4  0  0  0  0
  4 39  1  0  0  0  0
  5 40  1  0  0  0  0
  8 41  1  0  0  0  0
  9 42  1  0  0  0  0
 11 43  1  0  0  0  0
 13 44  1  0  0  0  0
 18 45  1  0  0  0  0
 19 46  1  0  0  0  0
 22 47  1  0  0  0  0
 23 48  1  0  0  0  0
 25 49  1  0  0  0  0
 27 50  1  0  0  0  0
 28 51  1  0  0  0  0
 29 52  1  0  0  0  0
 30 53  1  0  0  0  0
 31 54  1  0  0  0  0
 32 55  1  0  0  0  0
 34 56  1  0  0  0  0
 35 57  1  0  0  0  0
 36 58  1  0  0  0  0
 37 59  1  0  0  0  0
 38 60  1  0  0  0  0
M  END
