108

O     -3.378651   -2.935495    0.047296
C     -2.546132   -2.032986    0.033274
C     -3.039517   -0.640998    0.135985
C     -2.703696    0.295517   -0.846299
C     -3.169980    1.612381   -0.763244
C     -2.799865    2.681558   -1.807556
C     -4.081475    3.212130   -2.485534
C     -2.068466    3.844266   -1.104167
C     -1.872119    2.166331   -2.930882
C     -4.020215    1.939203    0.322566
C     -4.414586    1.001129    1.300455
C     -5.377019    1.348353    2.453234
C     -5.821450    2.825390    2.476837
C     -4.692682    1.057988    3.807903
C     -6.659710    0.491509    2.336141
C     -3.907448   -0.304878    1.180971
N     -1.185019   -2.253066   -0.094231
C     -0.106968   -1.354702    0.316517
C     -0.029780   -1.120467    1.864348
O     -1.148012   -1.461269    2.540937
O      0.905272   -0.627945    2.480399
N      1.128157   -1.981298   -0.165756
C      1.872003   -1.246869   -1.081879
C      2.531234   -0.014664   -0.593058
C      2.517719    1.124840   -1.401540
C      3.197398    2.291398   -1.014478
C      3.172446    3.539427   -1.917704
C      3.938169    3.237644   -3.223242
C      3.828839    4.785349   -1.279796
C      1.716727    3.925426   -2.254177
C      3.918173    2.243930    0.200132
C      3.969614    1.095542    1.024174
C      4.819613    1.101649    2.309400
C      6.306915    1.283681    1.933435
C      4.712486   -0.196818    3.141272
C      4.376781    2.253665    3.235163
C      3.255568   -0.032803    0.599680
O      2.014750   -1.558185   -2.259368
C      0.875285   -3.394918   -0.480893
C      1.582312   -4.364966    0.461284
C      1.870236   -5.664155   -0.006715
C      2.537089   -6.587881    0.800469
C      2.920187   -6.235636    2.089889
C      2.636453   -4.959553    2.572410
C      1.977219   -4.030688    1.764460
C     -0.665854   -3.562185   -0.478319
C     -1.168844   -3.990891   -1.850459
C     -1.790299   -5.238632   -2.013207
C     -2.252685   -5.644631   -3.266231
C     -2.100406   -4.808207   -4.373391
C     -1.482113   -3.565252   -4.226264
C     -1.012080   -3.161918   -2.976804
H     -2.100287   -0.039257   -1.689636
H     -4.759023    3.692300   -1.772331
H     -3.853181    3.957848   -3.255984
H     -4.637310    2.402255   -2.971263
H     -2.724523    4.397588   -0.420514
H     -1.676642    4.565233   -1.831103
H     -1.220576    3.475913   -0.514791
H     -0.920384    1.792250   -2.533967
H     -2.346447    1.358717   -3.498436
H     -1.630459    2.960943   -3.649448
H     -4.390267    2.961214    0.384593
H     -6.489753    3.019349    3.328505
H     -4.965479    3.504207    2.580210
H     -6.375173    3.102363    1.567787
H     -3.746583    1.606615    3.899001
H     -5.332776    1.353393    4.648477
H     -4.466132   -0.006387    3.934060
H     -7.380617    0.749022    3.123465
H     -6.443047   -0.581233    2.427329
H     -7.148619    0.647143    1.367646
H     -4.193523   -1.083242    1.886105
H     -0.249693   -0.369480   -0.144902
H     -0.951458   -1.236574    3.474985
H      1.987563    1.086738   -2.347738
H      3.939474    4.107899   -3.890724
H      4.984570    2.974180   -3.015710
H      3.488453    2.406608   -3.776458
H      3.348261    5.054301   -0.332404
H      3.752393    5.655738   -1.941726
H      4.896295    4.626912   -1.093812
H      1.133015    4.082286   -1.340848
H      1.208687    3.161780   -2.846751
H      1.673316    4.850316   -2.838680
H      4.482231    3.117595    0.524227
H      6.490700    2.236210    1.424472
H      6.640721    0.481624    1.261628
H      6.945842    1.263253    2.826398
H      5.312640   -0.131620    4.056821
H      5.073388   -1.065931    2.580974
H      3.679058   -0.391282    3.445907
H      4.532446    3.238615    2.779440
H      4.953657    2.246043    4.170780
H      3.307327    2.163494    3.487985
H      3.275819   -0.951868    1.174058
H      1.294503   -3.607275   -1.473531
H      1.593726   -5.954723   -1.019460
H      2.759186   -7.584187    0.416579
H      3.439448   -6.952998    2.718277
H      2.946409   -4.679962    3.576897
H      1.791827   -3.045206    2.173876
H     -0.994141   -4.278313    0.280269
H     -1.935424   -5.899323   -1.161648
H     -2.738164   -6.609678   -3.374730
H     -2.462994   -5.120863   -5.349568
H     -1.352672   -2.909090   -5.085598
H     -0.531180   -2.187806   -2.882422
