62

C     -6.346274   -2.308441    0.114975
C     -6.663608   -1.967994   -1.199501
C     -5.949373   -0.967519   -1.845148
C     -4.913689   -0.311570   -1.177442
C     -4.564652   -0.639655    0.154261
C     -5.309269   -1.655859    0.802199
C     -5.010740   -2.005213    2.130330
C     -3.995609   -1.360828    2.835863
C     -3.251660   -0.364522    2.216139
C     -3.514134   -0.022844    0.880639
C     -2.676904    1.042813    0.276799
N     -1.321404    0.810776    0.148703
C     -0.675608   -0.511834    0.145798
C     -0.915312   -1.348447   -1.153725
O     -1.840320   -0.828063   -1.992032
O     -0.354379   -2.385435   -1.479266
N      0.754959   -0.207477    0.210622
C      1.568967   -1.126239    0.850821
C      2.986992   -0.789495    1.055721
C      3.330689   -0.151890    2.254276
C      4.656181    0.191018    2.491055
C      5.631301   -0.111343    1.538956
C      5.302224   -0.771296    0.341027
C      3.958257   -1.133586    0.084235
C      3.664754   -1.809357   -1.123535
C      4.665752   -2.106244   -2.049419
C      5.980179   -1.737846   -1.790326
C      6.296211   -1.076959   -0.603138
O      1.168821   -2.207613    1.270759
C      0.955245    1.237681    0.123080
C     -0.387853    1.757632   -0.424829
C     -0.482648    3.249199   -0.131988
C      0.662839    3.966818   -0.865016
C      2.045006    3.349821   -0.607025
C      2.073453    1.817364   -0.732992
O     -3.221607    2.096336   -0.036986
H     -6.923118   -3.090896    0.604168
H     -7.472483   -2.479926   -1.714118
H     -6.197772   -0.689260   -2.865997
H     -4.378094    0.473922   -1.709221
H     -5.581558   -2.784021    2.633429
H     -3.790708   -1.635828    3.867556
H     -2.469843    0.147547    2.772275
H     -1.007782   -1.105531    1.000458
H     -1.885130   -1.480673   -2.721847
H      2.569205    0.069094    2.997576
H      4.936079    0.686892    3.417123
H      6.664268    0.164458    1.744800
H      2.646111   -2.123651   -1.350317
H      4.415241   -2.631223   -2.967761
H      6.762411   -1.971011   -2.508047
H      7.333323   -0.804732   -0.417980
H      1.089997    1.571204    1.162611
H     -0.450298    1.607969   -1.512760
H     -0.423155    3.439229    0.946311
H     -1.432229    3.667281   -0.478880
H      0.674227    5.025445   -0.581688
H      0.463739    3.933255   -1.943916
H      2.776842    3.788274   -1.295035
H      2.364409    3.623830    0.406766
H      3.057502    1.467022   -0.418046
H      1.952028    1.519436   -1.781348
