66

C     -2.681118   -3.642111   -3.496532
C     -2.527086   -4.721275   -2.629838
C     -2.061974   -4.503687   -1.342254
C     -1.754866   -3.207072   -0.919884
C     -1.903446   -2.083784   -1.771964
C     -2.373629   -2.333477   -3.088286
C     -2.526317   -1.274709   -3.992325
C     -2.212174    0.028594   -3.625575
C     -1.747948    0.294514   -2.342567
C     -1.602029   -0.736433   -1.392333
C     -1.053597   -0.423733    0.008797
C      0.496437   -0.591892    0.018225
C      1.056140   -1.350774    1.233332
C      0.444708   -1.193302    2.496595
C      0.917085   -1.851984    3.626283
C      2.014666   -2.693079    3.525120
C      2.651239   -2.894982    2.296282
C      2.185696   -2.230678    1.127154
C      2.887962   -2.512538   -0.071154
C      3.982114   -3.383193   -0.115017
C      4.414864   -4.011203    1.040872
C      3.751582   -3.767339    2.238925
N      0.975591    0.796935   -0.037230
C      2.035035    1.165967   -0.852722
C      2.285895    2.582588   -1.022270
C      3.082984    3.418271   -0.265757
C      3.081923    4.756098   -0.764033
C      2.309105    4.863267   -1.892839
Br     2.058796    6.499190   -2.848975
S      1.604985    3.397495   -2.368484
O      2.716221    0.331033   -1.441446
C     -0.021360    1.705778    0.510973
C      0.426556    2.131622    1.943688
O     -0.514013    1.980063    2.901410
O      1.513058    2.598616    2.255215
N     -1.276364    0.966442    0.436444
C     -2.544998    1.413904    0.770442
C     -2.776466    2.837361    0.962031
C     -3.420245    3.434452    2.033227
C     -3.535913    4.848612    1.883222
C     -3.014717    5.259400    0.683082
Br    -2.981390    7.082817    0.114135
S     -2.425337    3.985233   -0.262807
O     -3.456745    0.604215    0.939986
H     -3.043972   -3.832885   -4.504301
H     -2.768412   -5.727295   -2.961483
H     -1.939160   -5.340276   -0.657995
H     -1.394061   -3.102680    0.099908
H     -2.886298   -1.459749   -5.002421
H     -2.325629    0.836962   -4.343688
H     -1.496829    1.323569   -2.100896
H     -1.574038   -1.065612    0.726362
H      0.796850   -1.115984   -0.892548
H     -0.429165   -0.560966    2.630154
H      0.425272   -1.713631    4.585716
H      2.368539   -3.199733    4.420655
H      2.606843   -2.054396   -1.015005
H      4.491566   -3.559570   -1.058981
H      5.264669   -4.687123    1.012387
H      4.103753   -4.271031    3.136940
H      3.632269    3.087925    0.609433
H      3.628008    5.577328   -0.317014
H     -0.099566    2.610871   -0.085412
H     -0.069762    2.294116    3.717889
H     -3.783031    2.873907    2.887781
H     -3.988754    5.511033    2.611371
