
  xtb     03172201373D
 xtb: 6.3.3 (4ae9cef)
 66 72  0     0  0            999 V2000
   -2.6213   -3.1190   -4.0869 C   0  0  0  0  0  0  0  0  0  0  0  0
   -2.5440   -4.2998   -3.4056 C   0  0  0  0  0  0  0  0  0  0  0  0
   -2.1817   -4.3011   -2.0514 C   0  0  0  0  0  0  0  0  0  0  0  0
   -1.9055   -3.1297   -1.4022 C   0  0  0  0  0  0  0  0  0  0  0  0
   -1.9786   -1.8898   -2.0745 C   0  0  0  0  0  0  0  0  0  0  0  0
   -2.3413   -1.8930   -3.4483 C   0  0  0  0  0  0  0  0  0  0  0  0
   -2.4081   -0.6744   -4.1545 C   0  0  0  0  0  0  0  0  0  0  0  0
   -2.1345    0.5051   -3.5272 C   0  0  0  0  0  0  0  0  0  0  0  0
   -1.7814    0.5147   -2.1710 C   0  0  0  0  0  0  0  0  0  0  0  0
   -1.7017   -0.6456   -1.4459 C   0  0  0  0  0  0  0  0  0  0  0  0
   -1.2546   -0.6312    0.0003 C   0  0  0  0  0  0  0  0  0  0  0  0
    0.2277   -1.0357    0.0754 C   0  0  0  0  0  0  0  0  0  0  0  0
    0.7350   -1.4736    1.4311 C   0  0  0  0  0  0  0  0  0  0  0  0
   -0.0721   -1.4769    2.5410 C   0  0  0  0  0  0  0  0  0  0  0  0
    0.4261   -1.8226    3.8058 C   0  0  0  0  0  0  0  0  0  0  0  0
    1.7405   -2.1508    3.9608 C   0  0  0  0  0  0  0  0  0  0  0  0
    2.6079   -2.1674    2.8493 C   0  0  0  0  0  0  0  0  0  0  0  0
    2.1061   -1.8390    1.5603 C   0  0  0  0  0  0  0  0  0  0  0  0
    3.0002   -1.8873    0.4688 C   0  0  0  0  0  0  0  0  0  0  0  0
    4.3145   -2.2190    0.6497 C   0  0  0  0  0  0  0  0  0  0  0  0
    4.8092   -2.5248    1.9248 C   0  0  0  0  0  0  0  0  0  0  0  0
    3.9687   -2.5044    3.0005 C   0  0  0  0  0  0  0  0  0  0  0  0
    0.8488    0.2449   -0.2755 N   0  0  0  0  0  0  0  0  0  0  0  0
    1.3797    0.4204   -1.5249 C   0  0  0  0  0  0  0  0  0  0  0  0
    1.7770    1.7944   -1.8658 C   0  0  0  0  0  0  0  0  0  0  0  0
    2.3775    2.7535   -1.0944 C   0  0  0  0  0  0  0  0  0  0  0  0
    2.6908    3.9203   -1.8141 C   0  0  0  0  0  0  0  0  0  0  0  0
    2.3232    3.8195   -3.1234 C   0  0  0  0  0  0  0  0  0  0  0  0
    2.5217    5.1402   -4.4378 Br  0  0  0  0  0  0  0  0  0  0  0  0
    1.6070    2.2962   -3.5134 S   0  0  0  0  0  0  0  0  0  0  0  0
    1.5676   -0.5118   -2.2801 O   0  0  0  0  0  0  0  0  0  0  0  0
    0.1290    1.2459    0.4682 C   0  0  0  0  0  0  0  0  0  0  0  0
    0.8095    1.4306    1.8407 C   0  0  0  0  0  0  0  0  0  0  0  0
   -0.0426    1.4577    2.8578 O   0  0  0  0  0  0  0  0  0  0  0  0
    1.9939    1.5730    1.9558 O   0  0  0  0  0  0  0  0  0  0  0  0
   -1.2188    0.7224    0.5477 N   0  0  0  0  0  0  0  0  0  0  0  0
   -2.3328    1.2464    1.1188 C   0  0  0  0  0  0  0  0  0  0  0  0
   -2.3386    2.6513    1.5645 C   0  0  0  0  0  0  0  0  0  0  0  0
   -3.3358    3.1533    2.3581 C   0  0  0  0  0  0  0  0  0  0  0  0
   -3.2137    4.5252    2.6357 C   0  0  0  0  0  0  0  0  0  0  0  0
   -2.1193    5.0651    2.0317 C   0  0  0  0  0  0  0  0  0  0  0  0
   -1.5487    6.8498    2.1081 Br  0  0  0  0  0  0  0  0  0  0  0  0
   -1.2165    3.9030    1.1242 S   0  0  0  0  0  0  0  0  0  0  0  0
   -3.3385    0.5731    1.2538 O   0  0  0  0  0  0  0  0  0  0  0  0
   -2.8981   -3.1033   -5.1312 H   0  0  0  0  0  0  0  0  0  0  0  0
   -2.7590   -5.2349   -3.9009 H   0  0  0  0  0  0  0  0  0  0  0  0
   -2.1208   -5.2392   -1.5197 H   0  0  0  0  0  0  0  0  0  0  0  0
   -1.6278   -3.1620   -0.3599 H   0  0  0  0  0  0  0  0  0  0  0  0
   -2.6765   -0.6939   -5.2005 H   0  0  0  0  0  0  0  0  0  0  0  0
   -2.1812    1.4405   -4.0647 H   0  0  0  0  0  0  0  0  0  0  0  0
   -1.5823    1.4684   -1.7022 H   0  0  0  0  0  0  0  0  0  0  0  0
   -1.9294   -1.2420    0.6013 H   0  0  0  0  0  0  0  0  0  0  0  0
    0.4805   -1.7656   -0.6973 H   0  0  0  0  0  0  0  0  0  0  0  0
   -1.1121   -1.1980    2.4773 H   0  0  0  0  0  0  0  0  0  0  0  0
   -0.2451   -1.8135    4.6519 H   0  0  0  0  0  0  0  0  0  0  0  0
    2.1367   -2.4033    4.9337 H   0  0  0  0  0  0  0  0  0  0  0  0
    2.6544   -1.6674   -0.5271 H   0  0  0  0  0  0  0  0  0  0  0  0
    4.9809   -2.2478   -0.1994 H   0  0  0  0  0  0  0  0  0  0  0  0
    5.8513   -2.7801    2.0472 H   0  0  0  0  0  0  0  0  0  0  0  0
    4.3315   -2.7471    3.9892 H   0  0  0  0  0  0  0  0  0  0  0  0
    2.6177    2.6091   -0.0559 H   0  0  0  0  0  0  0  0  0  0  0  0
    3.1632    4.7877   -1.3916 H   0  0  0  0  0  0  0  0  0  0  0  0
    0.1809    2.2120   -0.0544 H   0  0  0  0  0  0  0  0  0  0  0  0
    0.4315    1.5515    3.7009 H   0  0  0  0  0  0  0  0  0  0  0  0
   -4.1323    2.5306    2.7222 H   0  0  0  0  0  0  0  0  0  0  0  0
   -3.8957    5.0891    3.2449 H   0  0  0  0  0  0  0  0  0  0  0  0
  1  2  2  0  0  0  0
  2  3  4  0  0  0  0
  3  4  2  0  0  0  0
  4  5  4  0  0  0  0
  1  6  4  0  0  0  0
  5  6  4  0  0  0  0
  6  7  4  0  0  0  0
  7  8  2  0  0  0  0
  8  9  4  0  0  0  0
  5 10  4  0  0  0  0
  9 10  2  0  0  0  0
 10 11  1  0  0  0  0
 11 12  1  0  0  0  0
 12 13  1  0  0  0  0
 13 14  2  0  0  0  0
 14 15  4  0  0  0  0
 15 16  2  0  0  0  0
 16 17  4  0  0  0  0
 13 18  4  0  0  0  0
 17 18  4  0  0  0  0
 18 19  4  0  0  0  0
 19 20  2  0  0  0  0
 20 21  4  0  0  0  0
 17 22  4  0  0  0  0
 21 22  2  0  0  0  0
 12 23  1  0  0  0  0
 23 24  1  0  0  0  0
 24 25  1  0  0  0  0
 25 26  2  0  0  0  0
 26 27  4  0  0  0  0
 27 28  2  0  0  0  0
 28 29  1  0  0  0  0
 25 30  1  0  0  0  0
 28 30  1  0  0  0  0
 24 31  2  0  0  0  0
 23 32  1  0  0  0  0
 32 33  1  0  0  0  0
 33 34  1  0  0  0  0
 33 35  2  0  0  0  0
 11 36  1  0  0  0  0
 32 36  1  0  0  0  0
 36 37  4  0  0  0  0
 37 38  1  0  0  0  0
 38 39  2  0  0  0  0
 39 40  4  0  0  0  0
 40 41  2  0  0  0  0
 41 42  1  0  0  0  0
 38 43  1  0  0  0  0
 41 43  1  0  0  0  0
 37 44  2  0  0  0  0
  1 45  1  0  0  0  0
  2 46  1  0  0  0  0
  3 47  1  0  0  0  0
  4 48  1  0  0  0  0
  7 49  1  0  0  0  0
  8 50  1  0  0  0  0
  9 51  1  0  0  0  0
 11 52  1  0  0  0  0
 12 53  1  0  0  0  0
 14 54  1  0  0  0  0
 15 55  1  0  0  0  0
 16 56  1  0  0  0  0
 19 57  1  0  0  0  0
 20 58  1  0  0  0  0
 21 59  1  0  0  0  0
 22 60  1  0  0  0  0
 26 61  1  0  0  0  0
 27 62  1  0  0  0  0
 32 63  1  0  0  0  0
 34 64  1  0  0  0  0
 39 65  1  0  0  0  0
 40 66  1  0  0  0  0
M  END
