66

C      0.942358   -1.355800    2.675477
C      1.125182   -1.936455    3.932218
C      1.044826   -3.321024    4.084182
C      0.784487   -4.129093    2.979126
C      0.600633   -3.551423    1.721931
C      0.674542   -2.157710    1.552474
C      0.450643   -1.558807    0.166983
C     -0.854027   -0.706454    0.133439
C     -1.828709   -1.211544   -0.925352
C     -2.183011   -0.482705   -2.069493
C     -3.100997   -0.998863   -2.989243
C     -3.683024   -2.247388   -2.780105
C     -3.352557   -2.982163   -1.646565
C     -2.436911   -2.467322   -0.726356
N     -0.374630    0.666679   -0.050928
C     -0.978821    1.864446    0.298727
C     -2.372758    1.903008    0.712484
C     -3.187998    3.003252    0.931868
C     -4.470955    2.514895    1.287366
C     -5.715105    3.085319    1.608459
C     -6.789345    2.232420    1.905178
C     -6.632495    0.842919    1.886058
C     -5.400305    0.258010    1.571350
C     -4.356561    1.132095    1.280597
O     -3.091686    0.764504    0.947697
O     -0.320009    2.904876    0.245228
C      1.004003    0.677842   -0.518121
C      0.981078    1.006996   -2.048165
O      1.495142    0.034574   -2.838211
O      0.510941    2.003411   -2.579141
N      1.523507   -0.648858   -0.222772
C      2.812076   -1.117892   -0.448681
C      3.882098   -0.194149   -0.796162
C      5.185916   -0.468193   -1.179795
C      5.828458    0.773922   -1.409102
C      4.872269    1.743188   -1.140059
C      5.095523    3.113104   -1.242915
C      6.376501    3.504892   -1.644835
C      7.368079    2.559974   -1.924595
C      7.109384    1.186115   -1.812584
O      3.701895    1.160713   -0.766091
O      3.045904   -2.325997   -0.365476
H      1.014951   -0.274529    2.580649
H      1.337866   -1.309548    4.795735
H      1.195724   -3.771479    5.062964
H      0.736666   -5.210713    3.094031
H      0.415889   -4.198952    0.866384
H      0.428487   -2.367720   -0.575065
H     -1.370457   -0.756175    1.099880
H     -1.775939    0.506632   -2.261860
H     -3.368377   -0.417013   -3.868222
H     -4.400423   -2.642572   -3.494752
H     -3.810925   -3.953098   -1.475047
H     -2.209050   -3.052147    0.163236
H     -2.882251    4.035610    0.823886
H     -5.846652    4.163224    1.622562
H     -7.759369    2.662167    2.148857
H     -7.482034    0.203888    2.115831
H     -5.257660   -0.816123    1.545009
H      1.582709    1.438402    0.013095
H      1.393350    0.392410   -3.745991
H      5.608781   -1.458858   -1.282495
H      4.316741    3.832877   -1.020670
H      6.603295    4.564983   -1.739262
H      8.357114    2.893418   -2.233161
H      7.886023    0.459998   -2.031694
