66

C     -1.612314    1.847734   -1.490908
C     -2.575774    2.854157   -1.402119
C     -3.473786    2.895488   -0.326730
C     -4.453252    3.896557   -0.230829
C     -5.341958    3.923218    0.844726
C     -5.262014    2.950841    1.836945
C     -4.292936    1.949660    1.756056
C     -3.391805    1.908629    0.679939
C     -2.415856    0.903279    0.580097
C     -1.528321    0.852458   -0.508961
C     -0.477279   -0.239240   -0.636167
C      0.669495   -0.019119    0.387226
C      2.008554    0.322756   -0.248914
C      2.711023    1.457417    0.194652
C      3.949944    1.822857   -0.359656
C      4.645163    2.959095    0.084244
C      5.874185    3.309071   -0.477060
C      6.424749    2.526784   -1.487096
C      5.747812    1.392432   -1.936820
C      4.509796    1.028706   -1.382391
C      3.818056   -0.109878   -1.817247
C      2.585920   -0.458673   -1.256685
N      0.723754   -1.246903    1.177298
C      1.318932   -1.239056    2.425064
C      1.336531   -2.491736    3.159551
C      2.352981   -3.418373    3.076855
Br     3.894249   -3.252950    1.946639
S      2.117284   -4.771699    4.074861
C      0.650106   -4.132441    4.680643
C      0.355201   -2.906933    4.122530
O      1.805493   -0.227735    2.920494
C     -0.229544   -2.240887    0.705746
C      0.491787   -3.462412    0.077608
O      0.357485   -4.590500    0.806602
O      1.142139   -3.475834   -0.958069
N     -0.996273   -1.577289   -0.334117
C     -2.058750   -2.244942   -0.908512
C     -2.671788   -1.651965   -2.087679
C     -3.992985   -1.265029   -2.167711
Br    -5.269178   -1.382789   -0.739546
S     -4.418290   -0.608653   -3.676326
C     -2.844670   -0.866787   -4.291705
C     -2.014287   -1.434558   -3.350087
O     -2.449190   -3.319377   -0.459449
H     -0.935283    1.846732   -2.343040
H     -2.623433    3.607666   -2.185325
H     -4.532587    4.663677   -0.997963
H     -6.097553    4.702212    0.905748
H     -5.955594    2.969369    2.673650
H     -4.251153    1.196618    2.539815
H     -2.359812    0.143960    1.358118
H     -0.108241   -0.266196   -1.666874
H      0.404789    0.791908    1.079538
H      2.293937    2.062700    0.999637
H      4.233354    3.579978    0.876306
H      6.401168    4.190237   -0.121391
H      7.383067    2.795673   -1.923323
H      6.196199    0.790272   -2.722987
H      4.237521   -0.743039   -2.596370
H      2.094588   -1.354950   -1.623815
H      0.082975   -4.679480    5.422038
H     -0.521215   -2.329061    4.391220
H     -0.903068   -2.562455    1.506926
H      0.828467   -5.278355    0.290849
H     -2.607063   -0.599035   -5.312275
H     -0.981451   -1.693810   -3.553473
