68

C      2.063112   -2.731990    1.128812
O      2.005743   -3.492902   -0.010156
C      3.300964   -3.747243   -0.556643
C      2.803843   -3.158175    2.237181
C      2.824527   -2.394761    3.402975
C      2.095173   -1.211643    3.470059
C      1.337960   -0.795985    2.373916
C      1.302005   -1.553616    1.186091
C      0.470454   -1.092820   -0.011059
C     -1.039158   -0.964861    0.354019
C     -1.924356   -1.903206   -0.464779
C     -2.719539   -1.454480   -1.532679
C     -3.506226   -2.341402   -2.269363
C     -3.518721   -3.692588   -1.946848
C     -2.741527   -4.161764   -0.888405
C     -1.943007   -3.280270   -0.150992
O     -1.170900   -3.660247    0.915569
C     -0.885953   -5.046406    1.051529
N     -1.340321    0.468854    0.205568
C     -2.420173    1.031240    0.857016
C     -2.655956    2.475373    0.698996
C     -2.131546    3.417613    1.588202
Br    -1.030268    2.935079    3.055723
C     -2.415617    4.772786    1.397528
C     -3.229724    5.177317    0.335883
C     -3.768433    4.231418   -0.536415
C     -3.487598    2.877983   -0.354231
O     -3.230433    0.401754    1.528197
C     -0.226781    1.196488   -0.388006
C     -0.597808    1.665437   -1.819134
O     -0.471617    3.004946   -1.973092
O     -0.952275    0.985117   -2.767316
N      0.877365    0.255128   -0.438790
C      2.163940    0.522234   -0.868223
C      2.580096    1.934085   -0.974542
C      2.764475    2.643868    0.222028
C      3.183023    3.972857    0.186011
C      3.430625    4.589193   -1.039778
C      3.268554    3.877264   -2.231423
C      2.849690    2.543358   -2.203223
Br     2.627927    1.651896   -3.861688
O      3.006764   -0.334267   -1.110879
H      3.757843   -4.610448   -0.061393
H      3.959000   -2.874182   -0.490647
H      3.175640   -3.992504   -1.615349
H      3.354286   -4.092572    2.206119
H      3.402447   -2.728232    4.260538
H      2.104420   -0.617574    4.380040
H      0.764558    0.123418    2.457323
H      0.622541   -1.750031   -0.874917
H     -1.226827   -1.199443    1.410469
H     -2.746447   -0.405556   -1.807680
H     -4.112581   -1.971524   -3.091897
H     -4.138435   -4.381937   -2.513584
H     -2.790663   -5.218626   -0.651486
H     -0.127590   -5.157720    1.831750
H     -1.775663   -5.594242    1.375100
H     -0.475424   -5.465885    0.127344
H     -2.016531    5.524226    2.076008
H     -3.454753    6.232944    0.197455
H     -4.417797    4.547953   -1.349500
H     -3.927025    2.138399   -1.020531
H      0.042852    2.055801    0.229155
H     -0.691750    3.149796   -2.918542
H      2.600753    2.155894    1.181047
H      3.329813    4.524179    1.112083
H      3.762775    5.624658   -1.068170
H      3.476253    4.370543   -3.178373
