
  xtb     03162223103D
 xtb: 6.3.3 (4ae9cef)
 68 72  0     0  0            999 V2000
    2.0045   -2.9199    0.4127 C   0  0  0  0  0  0  0  0  0  0  0  0
    1.5524   -3.3920   -0.7818 O   0  0  0  0  0  0  0  0  0  0  0  0
    1.9731   -4.6640   -1.2074 C   0  0  0  0  0  0  0  0  0  0  0  0
    2.8137   -3.6364    1.2866 C   0  0  0  0  0  0  0  0  0  0  0  0
    3.2002   -3.0829    2.4953 C   0  0  0  0  0  0  0  0  0  0  0  0
    2.7816   -1.8163    2.8537 C   0  0  0  0  0  0  0  0  0  0  0  0
    1.9742   -1.0998    1.9884 C   0  0  0  0  0  0  0  0  0  0  0  0
    1.5923   -1.6291    0.7684 C   0  0  0  0  0  0  0  0  0  0  0  0
    0.6775   -0.8641   -0.1469 C   0  0  0  0  0  0  0  0  0  0  0  0
   -0.7592   -0.8293    0.4150 C   0  0  0  0  0  0  0  0  0  0  0  0
   -1.6207   -1.8799   -0.2310 C   0  0  0  0  0  0  0  0  0  0  0  0
   -2.2952   -1.6578   -1.4166 C   0  0  0  0  0  0  0  0  0  0  0  0
   -3.0513   -2.6621   -1.9981 C   0  0  0  0  0  0  0  0  0  0  0  0
   -3.1203   -3.9009   -1.3923 C   0  0  0  0  0  0  0  0  0  0  0  0
   -2.4331   -4.1479   -0.2150 C   0  0  0  0  0  0  0  0  0  0  0  0
   -1.6762   -3.1442    0.3742 C   0  0  0  0  0  0  0  0  0  0  0  0
   -0.9502   -3.2924    1.5197 O   0  0  0  0  0  0  0  0  0  0  0  0
   -0.9381   -4.5455    2.1550 C   0  0  0  0  0  0  0  0  0  0  0  0
   -1.1943    0.5397    0.1795 N   0  0  0  0  0  0  0  0  0  0  0  0
   -2.4384    0.9632    0.5013 C   0  0  0  0  0  0  0  0  0  0  0  0
   -2.6973    2.4070    0.1623 C   0  0  0  0  0  0  0  0  0  0  0  0
   -2.3028    3.4389    1.0029 C   0  0  0  0  0  0  0  0  0  0  0  0
   -1.3179    3.0369    2.5861 Br  0  0  0  0  0  0  0  0  0  0  0  0
   -2.5893    4.7603    0.7098 C   0  0  0  0  0  0  0  0  0  0  0  0
   -3.2884    5.0569   -0.4470 C   0  0  0  0  0  0  0  0  0  0  0  0
   -3.6980    4.0405   -1.2944 C   0  0  0  0  0  0  0  0  0  0  0  0
   -3.4091    2.7219   -0.9882 C   0  0  0  0  0  0  0  0  0  0  0  0
   -3.2816    0.2523    0.9974 O   0  0  0  0  0  0  0  0  0  0  0  0
   -0.1388    1.3755   -0.3298 C   0  0  0  0  0  0  0  0  0  0  0  0
   -0.4207    1.7814   -1.7946 C   0  0  0  0  0  0  0  0  0  0  0  0
   -0.1399    3.0684   -1.9971 O   0  0  0  0  0  0  0  0  0  0  0  0
   -0.8375    1.0459   -2.6407 O   0  0  0  0  0  0  0  0  0  0  0  0
    1.0357    0.5455   -0.2453 N   0  0  0  0  0  0  0  0  0  0  0  0
    2.3132    0.9649   -0.4298 C   0  0  0  0  0  0  0  0  0  0  0  0
    2.4876    2.4566   -0.3708 C   0  0  0  0  0  0  0  0  0  0  0  0
    2.4105    3.1056    0.8569 C   0  0  0  0  0  0  0  0  0  0  0  0
    2.6395    4.4666    0.9471 C   0  0  0  0  0  0  0  0  0  0  0  0
    2.9548    5.1935   -0.1896 C   0  0  0  0  0  0  0  0  0  0  0  0
    3.0393    4.5630   -1.4179 C   0  0  0  0  0  0  0  0  0  0  0  0
    2.8087    3.1998   -1.4970 C   0  0  0  0  0  0  0  0  0  0  0  0
    2.8771    2.3470   -3.1991 Br  0  0  0  0  0  0  0  0  0  0  0  0
    3.2491    0.2118   -0.5707 O   0  0  0  0  0  0  0  0  0  0  0  0
    1.6355   -5.4505   -0.5237 H   0  0  0  0  0  0  0  0  0  0  0  0
    3.0614   -4.7146   -1.3117 H   0  0  0  0  0  0  0  0  0  0  0  0
    1.5100   -4.8140   -2.1816 H   0  0  0  0  0  0  0  0  0  0  0  0
    3.1504   -4.6298    1.0352 H   0  0  0  0  0  0  0  0  0  0  0  0
    3.8317   -3.6542    3.1597 H   0  0  0  0  0  0  0  0  0  0  0  0
    3.0787   -1.3883    3.7987 H   0  0  0  0  0  0  0  0  0  0  0  0
    1.6366   -0.1106    2.2631 H   0  0  0  0  0  0  0  0  0  0  0  0
    0.6853   -1.3226   -1.1427 H   0  0  0  0  0  0  0  0  0  0  0  0
   -0.7473   -1.0114    1.4971 H   0  0  0  0  0  0  0  0  0  0  0  0
   -2.2200   -0.6950   -1.8978 H   0  0  0  0  0  0  0  0  0  0  0  0
   -3.5785   -2.4752   -2.9209 H   0  0  0  0  0  0  0  0  0  0  0  0
   -3.7078   -4.6913   -1.8358 H   0  0  0  0  0  0  0  0  0  0  0  0
   -2.4966   -5.1264    0.2344 H   0  0  0  0  0  0  0  0  0  0  0  0
   -0.2760   -4.4301    3.0121 H   0  0  0  0  0  0  0  0  0  0  0  0
   -1.9359   -4.8333    2.5013 H   0  0  0  0  0  0  0  0  0  0  0  0
   -0.5423   -5.3261    1.4970 H   0  0  0  0  0  0  0  0  0  0  0  0
   -2.2714    5.5430    1.3812 H   0  0  0  0  0  0  0  0  0  0  0  0
   -3.5178    6.0855   -0.6796 H   0  0  0  0  0  0  0  0  0  0  0  0
   -4.2496    4.2739   -2.1920 H   0  0  0  0  0  0  0  0  0  0  0  0
   -3.7351    1.9210   -1.6347 H   0  0  0  0  0  0  0  0  0  0  0  0
   -0.0051    2.3003    0.2491 H   0  0  0  0  0  0  0  0  0  0  0  0
   -0.2569    3.3055   -2.9334 H   0  0  0  0  0  0  0  0  0  0  0  0
    2.1736    2.5343    1.7423 H   0  0  0  0  0  0  0  0  0  0  0  0
    2.5718    4.9573    1.9055 H   0  0  0  0  0  0  0  0  0  0  0  0
    3.1363    6.2552   -0.1236 H   0  0  0  0  0  0  0  0  0  0  0  0
    3.2824    5.1186   -2.3103 H   0  0  0  0  0  0  0  0  0  0  0  0
  1  2  1  0  0  0  0
  2  3  1  0  0  0  0
  1  4  4  0  0  0  0
  4  5  4  0  0  0  0
  5  6  4  0  0  0  0
  6  7  4  0  0  0  0
  1  8  4  0  0  0  0
  7  8  4  0  0  0  0
  8  9  1  0  0  0  0
  9 10  1  0  0  0  0
 10 11  1  0  0  0  0
 11 12  4  0  0  0  0
 12 13  4  0  0  0  0
 13 14  4  0  0  0  0
 14 15  4  0  0  0  0
 11 16  4  0  0  0  0
 15 16  4  0  0  0  0
 16 17  1  0  0  0  0
 17 18  1  0  0  0  0
 10 19  1  0  0  0  0
 19 20  4  0  0  0  0
 20 21  1  0  0  0  0
 21 22  4  0  0  0  0
 22 23  1  0  0  0  0
 22 24  4  0  0  0  0
 24 25  4  0  0  0  0
 25 26  4  0  0  0  0
 21 27  4  0  0  0  0
 26 27  4  0  0  0  0
 20 28  2  0  0  0  0
 19 29  1  0  0  0  0
 29 30  1  0  0  0  0
 30 31  1  0  0  0  0
 30 32  2  0  0  0  0
  9 33  1  0  0  0  0
 29 33  1  0  0  0  0
 33 34  4  0  0  0  0
 34 35  1  0  0  0  0
 35 36  4  0  0  0  0
 36 37  4  0  0  0  0
 37 38  4  0  0  0  0
 38 39  4  0  0  0  0
 35 40  4  0  0  0  0
 39 40  4  0  0  0  0
 40 41  1  0  0  0  0
 34 42  2  0  0  0  0
  3 43  1  0  0  0  0
  3 44  1  0  0  0  0
  3 45  1  0  0  0  0
  4 46  1  0  0  0  0
  5 47  1  0  0  0  0
  6 48  1  0  0  0  0
  7 49  1  0  0  0  0
  9 50  1  0  0  0  0
 10 51  1  0  0  0  0
 12 52  1  0  0  0  0
 13 53  1  0  0  0  0
 14 54  1  0  0  0  0
 15 55  1  0  0  0  0
 18 56  1  0  0  0  0
 18 57  1  0  0  0  0
 18 58  1  0  0  0  0
 24 59  1  0  0  0  0
 25 60  1  0  0  0  0
 26 61  1  0  0  0  0
 27 62  1  0  0  0  0
 29 63  1  0  0  0  0
 31 64  1  0  0  0  0
 36 65  1  0  0  0  0
 37 66  1  0  0  0  0
 38 67  1  0  0  0  0
 39 68  1  0  0  0  0
M  END
