80

C     -2.798008   -4.841687    0.929300
C     -3.940316   -5.408146    0.351916
C     -4.307023   -5.076532   -0.948637
C     -3.529178   -4.179413   -1.674161
C     -2.388599   -3.613416   -1.100004
C     -1.998984   -3.943077    0.209431
C     -0.774501   -3.320402    0.874882
C      0.529302   -3.469542    0.022603
C      1.583184   -4.407883    0.612967
C      1.859537   -4.494224    1.986429
C      2.834812   -5.376334    2.469906
C      3.553781   -6.179375    1.587653
C      3.307968   -6.101317    0.218921
C      2.335476   -5.219847   -0.261949
N      1.019617   -2.093379   -0.146589
C      1.880520   -1.726874   -1.160402
C      2.318837   -0.315979   -1.199522
C      3.500652    0.050900   -0.562491
C      3.907383    1.392108   -0.569680
C      3.151972    2.376064   -1.232331
C      3.601156    3.776954   -1.265941
C      4.867369    4.111204   -1.776218
C      5.290316    5.443840   -1.839423
C      4.453419    6.466761   -1.396019
C      3.190788    6.155900   -0.885574
C      2.769023    4.822364   -0.819931
C      1.973454    1.974427   -1.886674
C      1.558285    0.635917   -1.880609
O      2.291827   -2.483708   -2.030974
C      0.305854   -1.183614    0.734819
C      1.113784   -0.895321    2.045736
O      2.398684   -1.295984    2.025241
O      0.692771   -0.322339    3.039985
N     -0.934677   -1.875024    1.022960
C     -1.958615   -1.295011    1.751417
C     -2.378686    0.046987    1.287993
C     -1.907865    1.203868    1.908894
C     -2.284849    2.455073    1.406451
C     -3.163901    2.565004    0.302955
C     -3.581935    3.887209   -0.201053
C     -4.014056    4.893566    0.682727
C     -4.393637    6.157986    0.216943
C     -4.359223    6.433906   -1.147316
C     -3.941456    5.452307   -2.043353
C     -3.555821    4.191261   -1.578187
C     -3.644909    1.377269   -0.292006
C     -3.254933    0.122189    0.193446
O     -2.545233   -1.830868    2.679871
H     -2.556437   -5.080764    1.965409
H     -4.562756   -6.092636    0.918565
H     -5.205588   -5.506199   -1.386853
H     -3.823438   -3.921282   -2.687108
H     -1.814847   -2.899327   -1.682699
H     -0.669723   -3.731707    1.884278
H      0.288458   -3.841839   -0.982528
H      1.328166   -3.887694    2.714504
H      3.024615   -5.432502    3.541060
H      4.302949   -6.863625    1.972804
H      3.873624   -6.718000   -0.475954
H      2.175615   -5.161763   -1.340358
H      4.108681   -0.698235   -0.062267
H      4.823927    1.662973   -0.050124
H      5.528318    3.333227   -2.153921
H      6.270409    5.680724   -2.247467
H      4.783898    7.497936   -1.446970
H      2.536254    6.951512   -0.536132
H      1.781689    4.604834   -0.408300
H      1.378621    2.710380   -2.431688
H      0.657072    0.342653   -2.412531
H      0.112186   -0.219799    0.259416
H      2.770397   -1.044950    2.893225
H     -1.245791    1.145661    2.768160
H     -1.890859    3.353927    1.878198
H     -4.059804    4.694245    1.756454
H     -4.715617    6.919515    0.920017
H     -4.673515    7.411440   -1.508413
H     -3.920808    5.662887   -3.110290
H     -3.225430    3.449812   -2.306681
H     -4.364815    1.422986   -1.117342
H     -3.648821   -0.788156   -0.261236
