
  xtb     03172200093D
 xtb: 6.3.3 (4ae9cef)
 80 86  0     0  0            999 V2000
   -2.7381   -5.1267    0.0516 C   0  0  0  0  0  0  0  0  0  0  0  0
   -3.6560   -5.5118   -0.9093 C   0  0  0  0  0  0  0  0  0  0  0  0
   -3.7785   -4.7893   -2.0830 C   0  0  0  0  0  0  0  0  0  0  0  0
   -2.9768   -3.6805   -2.2942 C   0  0  0  0  0  0  0  0  0  0  0  0
   -2.0581   -3.2973   -1.3352 C   0  0  0  0  0  0  0  0  0  0  0  0
   -1.9344   -4.0153   -0.1522 C   0  0  0  0  0  0  0  0  0  0  0  0
   -0.9125   -3.6095    0.8826 C   0  0  0  0  0  0  0  0  0  0  0  0
    0.5205   -3.7958    0.3351 C   0  0  0  0  0  0  0  0  0  0  0  0
    1.5458   -4.3493    1.2994 C   0  0  0  0  0  0  0  0  0  0  0  0
    1.4014   -4.3135    2.6799 C   0  0  0  0  0  0  0  0  0  0  0  0
    2.4159   -4.7812    3.4999 C   0  0  0  0  0  0  0  0  0  0  0  0
    3.5835   -5.2826    2.9531 C   0  0  0  0  0  0  0  0  0  0  0  0
    3.7362   -5.3156    1.5767 C   0  0  0  0  0  0  0  0  0  0  0  0
    2.7248   -4.8521    0.7567 C   0  0  0  0  0  0  0  0  0  0  0  0
    0.8970   -2.4370   -0.0471 N   0  0  0  0  0  0  0  0  0  0  0  0
    1.5831   -2.1199   -1.1754 C   0  0  0  0  0  0  0  0  0  0  0  0
    1.7486   -0.6450   -1.3722 C   0  0  0  0  0  0  0  0  0  0  0  0
    2.9963   -0.0669   -1.1823 C   0  0  0  0  0  0  0  0  0  0  0  0
    3.1521    1.3016   -1.2962 C   0  0  0  0  0  0  0  0  0  0  0  0
    2.0647    2.1199   -1.5915 C   0  0  0  0  0  0  0  0  0  0  0  0
    2.2160    3.5810   -1.6627 C   0  0  0  0  0  0  0  0  0  0  0  0
    3.2936    4.1570   -2.3302 C   0  0  0  0  0  0  0  0  0  0  0  0
    3.4217    5.5320   -2.3964 C   0  0  0  0  0  0  0  0  0  0  0  0
    2.4818    6.3496   -1.7907 C   0  0  0  0  0  0  0  0  0  0  0  0
    1.4113    5.7857   -1.1171 C   0  0  0  0  0  0  0  0  0  0  0  0
    1.2776    4.4113   -1.0554 C   0  0  0  0  0  0  0  0  0  0  0  0
    0.8222    1.5295   -1.8115 C   0  0  0  0  0  0  0  0  0  0  0  0
    0.6658    0.1611   -1.7121 C   0  0  0  0  0  0  0  0  0  0  0  0
    2.0273   -2.9648   -1.9212 O   0  0  0  0  0  0  0  0  0  0  0  0
    0.2740   -1.5422    0.8840 C   0  0  0  0  0  0  0  0  0  0  0  0
    1.1353   -1.3644    2.1517 C   0  0  0  0  0  0  0  0  0  0  0  0
    2.4293   -1.3289    1.8478 O   0  0  0  0  0  0  0  0  0  0  0  0
    0.7000   -1.2121    3.2571 O   0  0  0  0  0  0  0  0  0  0  0  0
   -0.9876   -2.1740    1.1716 N   0  0  0  0  0  0  0  0  0  0  0  0
   -2.1980   -1.5522    1.2884 C   0  0  0  0  0  0  0  0  0  0  0  0
   -2.1864   -0.0760    1.0553 C   0  0  0  0  0  0  0  0  0  0  0  0
   -1.4721    0.8320    1.8280 C   0  0  0  0  0  0  0  0  0  0  0  0
   -1.4953    2.1778    1.5123 C   0  0  0  0  0  0  0  0  0  0  0  0
   -2.2283    2.6472    0.4237 C   0  0  0  0  0  0  0  0  0  0  0  0
   -2.2419    4.0780    0.0828 C   0  0  0  0  0  0  0  0  0  0  0  0
   -2.2891    5.0462    1.0836 C   0  0  0  0  0  0  0  0  0  0  0  0
   -2.3002    6.3908    0.7623 C   0  0  0  0  0  0  0  0  0  0  0  0
   -2.2573    6.7915   -0.5629 C   0  0  0  0  0  0  0  0  0  0  0  0
   -2.2079    5.8382   -1.5664 C   0  0  0  0  0  0  0  0  0  0  0  0
   -2.2048    4.4936   -1.2472 C   0  0  0  0  0  0  0  0  0  0  0  0
   -2.9569    1.7312   -0.3333 C   0  0  0  0  0  0  0  0  0  0  0  0
   -2.9433    0.3878   -0.0171 C   0  0  0  0  0  0  0  0  0  0  0  0
   -3.2168   -2.1784    1.4826 O   0  0  0  0  0  0  0  0  0  0  0  0
   -2.6511   -5.6872    0.9707 H   0  0  0  0  0  0  0  0  0  0  0  0
   -4.2812   -6.3755   -0.7379 H   0  0  0  0  0  0  0  0  0  0  0  0
   -4.4984   -5.0866   -2.8310 H   0  0  0  0  0  0  0  0  0  0  0  0
   -3.0667   -3.1126   -3.2088 H   0  0  0  0  0  0  0  0  0  0  0  0
   -1.4337   -2.4316   -1.5078 H   0  0  0  0  0  0  0  0  0  0  0  0
   -1.0822   -4.1893    1.7939 H   0  0  0  0  0  0  0  0  0  0  0  0
    0.5194   -4.4076   -0.5732 H   0  0  0  0  0  0  0  0  0  0  0  0
    0.5066   -3.9193    3.1370 H   0  0  0  0  0  0  0  0  0  0  0  0
    2.2891   -4.7490    4.5720 H   0  0  0  0  0  0  0  0  0  0  0  0
    4.3710   -5.6460    3.5966 H   0  0  0  0  0  0  0  0  0  0  0  0
    4.6449   -5.7037    1.1414 H   0  0  0  0  0  0  0  0  0  0  0  0
    2.8452   -4.8648   -0.3162 H   0  0  0  0  0  0  0  0  0  0  0  0
    3.8367   -0.6962   -0.9319 H   0  0  0  0  0  0  0  0  0  0  0  0
    4.1215    1.7467   -1.1270 H   0  0  0  0  0  0  0  0  0  0  0  0
    4.0195    3.5220   -2.8170 H   0  0  0  0  0  0  0  0  0  0  0  0
    4.2572    5.9683   -2.9242 H   0  0  0  0  0  0  0  0  0  0  0  0
    2.5845    7.4234   -1.8431 H   0  0  0  0  0  0  0  0  0  0  0  0
    0.6752    6.4148   -0.6387 H   0  0  0  0  0  0  0  0  0  0  0  0
    0.4496    3.9753   -0.5165 H   0  0  0  0  0  0  0  0  0  0  0  0
   -0.0233    2.1488   -2.0710 H   0  0  0  0  0  0  0  0  0  0  0  0
   -0.3029   -0.2807   -1.9034 H   0  0  0  0  0  0  0  0  0  0  0  0
    0.1416   -0.5350    0.4662 H   0  0  0  0  0  0  0  0  0  0  0  0
    2.9704   -1.2071    2.6452 H   0  0  0  0  0  0  0  0  0  0  0  0
   -0.9109    0.4849    2.6824 H   0  0  0  0  0  0  0  0  0  0  0  0
   -0.9208    2.8721    2.1081 H   0  0  0  0  0  0  0  0  0  0  0  0
   -2.3431    4.7408    2.1181 H   0  0  0  0  0  0  0  0  0  0  0  0
   -2.3460    7.1296    1.5492 H   0  0  0  0  0  0  0  0  0  0  0  0
   -2.2623    7.8422   -0.8127 H   0  0  0  0  0  0  0  0  0  0  0  0
   -2.1665    6.1438   -2.6015 H   0  0  0  0  0  0  0  0  0  0  0  0
   -2.1519    3.7581   -2.0370 H   0  0  0  0  0  0  0  0  0  0  0  0
   -3.5576    2.0798   -1.1605 H   0  0  0  0  0  0  0  0  0  0  0  0
   -3.5193   -0.3191   -0.5966 H   0  0  0  0  0  0  0  0  0  0  0  0
  1  2  4  0  0  0  0
  2  3  4  0  0  0  0
  3  4  4  0  0  0  0
  4  5  4  0  0  0  0
  1  6  4  0  0  0  0
  5  6  4  0  0  0  0
  6  7  1  0  0  0  0
  7  8  1  0  0  0  0
  8  9  1  0  0  0  0
  9 10  4  0  0  0  0
 10 11  4  0  0  0  0
 11 12  4  0  0  0  0
 12 13  4  0  0  0  0
  9 14  4  0  0  0  0
 13 14  4  0  0  0  0
  8 15  1  0  0  0  0
 15 16  4  0  0  0  0
 16 17  1  0  0  0  0
 17 18  4  0  0  0  0
 18 19  4  0  0  0  0
 19 20  4  0  0  0  0
 20 21  1  0  0  0  0
 21 22  4  0  0  0  0
 22 23  4  0  0  0  0
 23 24  4  0  0  0  0
 24 25  4  0  0  0  0
 21 26  4  0  0  0  0
 25 26  4  0  0  0  0
 20 27  4  0  0  0  0
 17 28  4  0  0  0  0
 27 28  4  0  0  0  0
 16 29  2  0  0  0  0
 15 30  1  0  0  0  0
 30 31  1  0  0  0  0
 31 32  1  0  0  0  0
 31 33  2  0  0  0  0
  7 34  1  0  0  0  0
 30 34  1  0  0  0  0
 34 35  1  0  0  0  0
 35 36  1  0  0  0  0
 36 37  4  0  0  0  0
 37 38  4  0  0  0  0
 38 39  4  0  0  0  0
 39 40  1  0  0  0  0
 40 41  4  0  0  0  0
 41 42  4  0  0  0  0
 42 43  4  0  0  0  0
 43 44  4  0  0  0  0
 40 45  4  0  0  0  0
 44 45  4  0  0  0  0
 39 46  4  0  0  0  0
 36 47  4  0  0  0  0
 46 47  4  0  0  0  0
 35 48  2  0  0  0  0
  1 49  1  0  0  0  0
  2 50  1  0  0  0  0
  3 51  1  0  0  0  0
  4 52  1  0  0  0  0
  5 53  1  0  0  0  0
  7 54  1  0  0  0  0
  8 55  1  0  0  0  0
 10 56  1  0  0  0  0
 11 57  1  0  0  0  0
 12 58  1  0  0  0  0
 13 59  1  0  0  0  0
 14 60  1  0  0  0  0
 18 61  1  0  0  0  0
 19 62  1  0  0  0  0
 22 63  1  0  0  0  0
 23 64  1  0  0  0  0
 24 65  1  0  0  0  0
 25 66  1  0  0  0  0
 26 67  1  0  0  0  0
 27 68  1  0  0  0  0
 28 69  1  0  0  0  0
 30 70  1  0  0  0  0
 32 71  1  0  0  0  0
 37 72  1  0  0  0  0
 38 73  1  0  0  0  0
 41 74  1  0  0  0  0
 42 75  1  0  0  0  0
 43 76  1  0  0  0  0
 44 77  1  0  0  0  0
 45 78  1  0  0  0  0
 46 79  1  0  0  0  0
 47 80  1  0  0  0  0
M  END
