60

C      1.080911   -3.774466    0.963847
C      1.214362   -4.638814    2.051649
C      0.632547   -4.316452    3.274624
C     -0.076110   -3.125958    3.413725
C     -0.207928   -2.257905    2.327537
C      0.358665   -2.575376    1.080960
C      0.242516   -1.652356   -0.131171
C     -1.217112   -1.146106   -0.357419
C     -1.671369   -1.280689   -1.812155
C     -2.323558   -0.254514   -2.510792
C     -2.744919   -0.429666   -3.832552
C     -2.543523   -1.645567   -4.477023
C     -1.938465   -2.693694   -3.792901
C     -1.520307   -2.517289   -2.471395
N     -1.159862    0.230038    0.161185
C     -2.266337    0.842561    0.707537
C     -2.071361    2.129720    1.345626
C     -2.619634    3.321463    0.899870
C     -3.458302    3.684756   -0.270694
F     -4.649291    4.220418    0.098496
F     -3.735701    2.626632   -1.074347
F     -2.840528    4.606051   -1.058952
O     -2.256348    4.338997    1.742366
C     -1.517571    3.795018    2.740462
C     -1.381689    2.441103    2.553306
O     -3.380662    0.333476    0.691401
C      0.206112    0.742655    0.113630
C      0.427845    1.671089   -1.123179
O     -0.670762    2.355735   -1.510888
O      1.495164    1.907430   -1.669473
N      1.041197   -0.443081    0.065221
C      2.420333   -0.495243    0.069713
C      3.147818    0.667438    0.545167
C      4.249852    1.201993   -0.105181
C      4.942422    0.841731   -1.370353
F      4.098935    0.326680   -2.301918
F      5.541896    1.915987   -1.951666
F      5.918982   -0.080475   -1.167203
O      4.740521    2.263911    0.606977
C      3.973205    2.393434    1.716941
C      2.989529    1.433778    1.736111
O      3.036748   -1.488464   -0.304322
H      1.565177   -4.037182    0.024195
H      1.780617   -5.560794    1.944141
H      0.737442   -4.990764    4.120662
H     -0.527396   -2.874032    4.370062
H     -0.764552   -1.336009    2.472629
H      0.645050   -2.170444   -1.008746
H     -1.949169   -1.714061    0.231415
H     -2.543241    0.698227   -2.038637
H     -3.245592    0.383849   -4.351662
H     -2.875700   -1.781612   -5.502561
H     -1.802311   -3.654677   -4.282640
H     -1.083591   -3.372991   -1.959392
H     -1.179249    4.486483    3.500914
H     -0.865792    1.757992    3.214100
H      0.431249    1.323549    1.006001
H     -0.362615    2.893127   -2.274490
H      4.260533    3.189048    2.391668
H      2.270921    1.284313    2.529569
