
  xtb     03172200463D
 xtb: 6.3.3 (4ae9cef)
 60 64  0     0  0            999 V2000
    0.7710   -3.9202    1.1533 C   0  0  0  0  0  0  0  0  0  0  0  0
    0.7941   -4.7252    2.2787 C   0  0  0  0  0  0  0  0  0  0  0  0
    0.3015   -4.2519    3.4824 C   0  0  0  0  0  0  0  0  0  0  0  0
   -0.2133   -2.9687    3.5588 C   0  0  0  0  0  0  0  0  0  0  0  0
   -0.2365   -2.1639    2.4345 C   0  0  0  0  0  0  0  0  0  0  0  0
    0.2526   -2.6355    1.2222 C   0  0  0  0  0  0  0  0  0  0  0  0
    0.2320   -1.7556   -0.0032 C   0  0  0  0  0  0  0  0  0  0  0  0
   -1.1783   -1.2406   -0.3627 C   0  0  0  0  0  0  0  0  0  0  0  0
   -1.4518   -1.2820   -1.8503 C   0  0  0  0  0  0  0  0  0  0  0  0
   -1.8874   -0.1677   -2.5500 C   0  0  0  0  0  0  0  0  0  0  0  0
   -2.1209   -0.2453   -3.9129 C   0  0  0  0  0  0  0  0  0  0  0  0
   -1.9292   -1.4373   -4.5868 C   0  0  0  0  0  0  0  0  0  0  0  0
   -1.5203   -2.5608   -3.8880 C   0  0  0  0  0  0  0  0  0  0  0  0
   -1.2863   -2.4849   -2.5280 C   0  0  0  0  0  0  0  0  0  0  0  0
   -1.1799    0.1027    0.1974 N   0  0  0  0  0  0  0  0  0  0  0  0
   -2.2722    0.6333    0.7982 C   0  0  0  0  0  0  0  0  0  0  0  0
   -2.0400    1.9408    1.4869 C   0  0  0  0  0  0  0  0  0  0  0  0
   -2.4114    3.1965    1.0868 C   0  0  0  0  0  0  0  0  0  0  0  0
   -3.0389    3.6838   -0.1760 C   0  0  0  0  0  0  0  0  0  0  0  0
   -4.2456    4.2276    0.0196 F   0  0  0  0  0  0  0  0  0  0  0  0
   -3.1863    2.7027   -1.0693 F   0  0  0  0  0  0  0  0  0  0  0  0
   -2.2925    4.6317   -0.7759 F   0  0  0  0  0  0  0  0  0  0  0  0
   -2.1101    4.1086    2.0301 O   0  0  0  0  0  0  0  0  0  0  0  0
   -1.5557    3.4494    3.0499 C   0  0  0  0  0  0  0  0  0  0  0  0
   -1.4817    2.1165    2.7834 C   0  0  0  0  0  0  0  0  0  0  0  0
   -3.3473    0.0826    0.8157 O   0  0  0  0  0  0  0  0  0  0  0  0
    0.1544    0.6411    0.1890 C   0  0  0  0  0  0  0  0  0  0  0  0
    0.4065    1.4716   -1.0938 C   0  0  0  0  0  0  0  0  0  0  0  0
   -0.2924    2.6023   -1.0552 O   0  0  0  0  0  0  0  0  0  0  0  0
    1.1458    1.1535   -1.9758 O   0  0  0  0  0  0  0  0  0  0  0  0
    0.9902   -0.5285    0.2354 N   0  0  0  0  0  0  0  0  0  0  0  0
    2.3460   -0.5612    0.2104 C   0  0  0  0  0  0  0  0  0  0  0  0
    3.0023    0.7687    0.3630 C   0  0  0  0  0  0  0  0  0  0  0  0
    3.8437    1.3770   -0.5301 C   0  0  0  0  0  0  0  0  0  0  0  0
    4.2793    0.9925   -1.9080 C   0  0  0  0  0  0  0  0  0  0  0  0
    3.7123   -0.1291   -2.3348 F   0  0  0  0  0  0  0  0  0  0  0  0
    3.9913    1.9541   -2.8018 F   0  0  0  0  0  0  0  0  0  0  0  0
    5.6107    0.8146   -1.9767 F   0  0  0  0  0  0  0  0  0  0  0  0
    4.2981    2.5440   -0.0374 O   0  0  0  0  0  0  0  0  0  0  0  0
    3.7712    2.6885    1.1814 C   0  0  0  0  0  0  0  0  0  0  0  0
    2.9635    1.6367    1.4882 C   0  0  0  0  0  0  0  0  0  0  0  0
    2.9713   -1.5909    0.1215 O   0  0  0  0  0  0  0  0  0  0  0  0
    1.1690   -4.2843    0.2185 H   0  0  0  0  0  0  0  0  0  0  0  0
    1.2014   -5.7230    2.2162 H   0  0  0  0  0  0  0  0  0  0  0  0
    0.3204   -4.8793    4.3609 H   0  0  0  0  0  0  0  0  0  0  0  0
   -0.5979   -2.5946    4.4962 H   0  0  0  0  0  0  0  0  0  0  0  0
   -0.6435   -1.1648    2.4991 H   0  0  0  0  0  0  0  0  0  0  0  0
    0.6974   -2.2844   -0.8408 H   0  0  0  0  0  0  0  0  0  0  0  0
   -1.9559   -1.8149    0.1552 H   0  0  0  0  0  0  0  0  0  0  0  0
   -2.0738    0.7609   -2.0345 H   0  0  0  0  0  0  0  0  0  0  0  0
   -2.4585    0.6313   -4.4448 H   0  0  0  0  0  0  0  0  0  0  0  0
   -2.1073   -1.4949   -5.6499 H   0  0  0  0  0  0  0  0  0  0  0  0
   -1.3850   -3.5000   -4.4030 H   0  0  0  0  0  0  0  0  0  0  0  0
   -0.9835   -3.3685   -1.9851 H   0  0  0  0  0  0  0  0  0  0  0  0
   -1.2592    4.0247    3.9044 H   0  0  0  0  0  0  0  0  0  0  0  0
   -1.1015    1.3472    3.4237 H   0  0  0  0  0  0  0  0  0  0  0  0
    0.3153    1.3094    1.0469 H   0  0  0  0  0  0  0  0  0  0  0  0
   -0.1719    3.1236   -1.8682 H   0  0  0  0  0  0  0  0  0  0  0  0
    4.0414    3.5679    1.7317 H   0  0  0  0  0  0  0  0  0  0  0  0
    2.4332    1.4722    2.4034 H   0  0  0  0  0  0  0  0  0  0  0  0
  1  2  4  0  0  0  0
  2  3  4  0  0  0  0
  3  4  4  0  0  0  0
  4  5  4  0  0  0  0
  1  6  4  0  0  0  0
  5  6  4  0  0  0  0
  6  7  1  0  0  0  0
  7  8  1  0  0  0  0
  8  9  1  0  0  0  0
  9 10  4  0  0  0  0
 10 11  4  0  0  0  0
 11 12  4  0  0  0  0
 12 13  4  0  0  0  0
  9 14  4  0  0  0  0
 13 14  4  0  0  0  0
  8 15  1  0  0  0  0
 15 16  4  0  0  0  0
 16 17  1  0  0  0  0
 17 18  2  0  0  0  0
 18 19  1  0  0  0  0
 19 20  1  0  0  0  0
 19 21  1  0  0  0  0
 19 22  1  0  0  0  0
 18 23  1  0  0  0  0
 23 24  1  0  0  0  0
 17 25  4  0  0  0  0
 24 25  2  0  0  0  0
 16 26  2  0  0  0  0
 15 27  1  0  0  0  0
 27 28  1  0  0  0  0
 28 29  1  0  0  0  0
 28 30  2  0  0  0  0
  7 31  1  0  0  0  0
 27 31  1  0  0  0  0
 31 32  4  0  0  0  0
 32 33  1  0  0  0  0
 33 34  2  0  0  0  0
 34 35  1  0  0  0  0
 35 36  1  0  0  0  0
 35 37  1  0  0  0  0
 35 38  1  0  0  0  0
 34 39  1  0  0  0  0
 39 40  1  0  0  0  0
 33 41  4  0  0  0  0
 40 41  2  0  0  0  0
 32 42  2  0  0  0  0
  1 43  1  0  0  0  0
  2 44  1  0  0  0  0
  3 45  1  0  0  0  0
  4 46  1  0  0  0  0
  5 47  1  0  0  0  0
  7 48  1  0  0  0  0
  8 49  1  0  0  0  0
 10 50  1  0  0  0  0
 11 51  1  0  0  0  0
 12 52  1  0  0  0  0
 13 53  1  0  0  0  0
 14 54  1  0  0  0  0
 24 55  1  0  0  0  0
 25 56  1  0  0  0  0
 27 57  1  0  0  0  0
 29 58  1  0  0  0  0
 40 59  1  0  0  0  0
 41 60  1  0  0  0  0
M  END
