66

C     -2.556349    0.115980    1.730986
C     -3.261807    0.638835    2.821099
C     -3.047631    1.953343    3.257962
C     -3.740873    2.486090    4.357402
C     -3.508765    3.796145    4.781994
C     -2.595614    4.594651    4.098931
C     -1.904633    4.082098    3.000240
C     -2.113154    2.758749    2.575708
C     -1.408786    2.216346    1.486394
C     -1.602463    0.886977    1.058841
C     -0.749611    0.380371   -0.100781
C      0.708348    0.097223    0.345784
C      1.682271    0.781229   -0.613264
C      2.211859    2.037832   -0.272995
C      3.006507    2.766680   -1.175365
C      3.496679    4.044018   -0.858177
C      4.253620    4.768511   -1.779611
C      4.535696    4.223658   -3.027149
C      4.075910    2.950653   -3.350488
C      3.302789    2.213543   -2.440443
C      2.811258    0.942564   -2.763897
C      2.000884    0.242143   -1.869647
N      0.832999   -1.355758    0.325346
C      1.934809   -1.978634    0.886355
C      2.156112   -3.391955    0.637731
C      2.850288   -4.324424    1.389286
C      2.791811   -5.546788    0.679711
C      2.122107   -5.274780   -0.489723
O      1.733809   -3.976155   -0.526432
O      2.705186   -1.336404    1.600844
C     -0.328915   -1.984531   -0.297026
C     -1.151006   -2.885350    0.676325
O     -0.569037   -3.120834    1.869825
O     -2.260084   -3.361387    0.473818
N     -1.183501   -0.871587   -0.714297
C     -2.187542   -0.857621   -1.670944
C     -2.522184   -2.053137   -2.423467
C     -3.595542   -2.281261   -3.271272
C     -3.463295   -3.600597   -3.770421
C     -2.312703   -4.099869   -3.210696
O     -1.737913   -3.174073   -2.399158
O     -2.801792    0.189732   -1.885020
H     -2.779705   -0.905074    1.432874
H     -3.991082    0.008911    3.322553
H     -4.462869    1.876149    4.900333
H     -4.045984    4.191615    5.639707
H     -2.420734    5.617138    4.417039
H     -1.192058    4.717986    2.478405
H     -0.699670    2.847722    0.955840
H     -0.788091    1.160562   -0.871686
H      0.917206    0.443557    1.367034
H      1.977770    2.469919    0.696351
H      3.288051    4.485558    0.113835
H      4.612538    5.761959   -1.530701
H      5.124836    4.785019   -3.745230
H      4.318678    2.540129   -4.326393
H      3.036893    0.495790   -3.730195
H      1.617125   -0.726202   -2.178004
H      3.308120   -4.137858    2.354708
H      3.207616   -6.501527    0.970437
H      1.844329   -5.869461   -1.348236
H      0.009914   -2.560681   -1.156573
H     -1.218478   -3.676622    2.348041
H     -4.372564   -1.563861   -3.498295
H     -4.109059   -4.107330   -4.469998
H     -1.792523   -5.045623   -3.286157
