
  xtb     03162222393D
 xtb: 6.3.3 (4ae9cef)
 66 72  0     0  0            999 V2000
   -2.8274    0.1158    1.2628 C   0  0  0  0  0  0  0  0  0  0  0  0
   -3.6018    0.4511    2.3383 C   0  0  0  0  0  0  0  0  0  0  0  0
   -3.3047    1.5814    3.1251 C   0  0  0  0  0  0  0  0  0  0  0  0
   -4.0868    1.9566    4.2376 C   0  0  0  0  0  0  0  0  0  0  0  0
   -3.7745    3.0702    4.9651 C   0  0  0  0  0  0  0  0  0  0  0  0
   -2.6658    3.8584    4.6156 C   0  0  0  0  0  0  0  0  0  0  0  0
   -1.8879    3.5206    3.5446 C   0  0  0  0  0  0  0  0  0  0  0  0
   -2.1841    2.3775    2.7719 C   0  0  0  0  0  0  0  0  0  0  0  0
   -1.4062    2.0052    1.6594 C   0  0  0  0  0  0  0  0  0  0  0  0
   -1.7055    0.8899    0.9182 C   0  0  0  0  0  0  0  0  0  0  0  0
   -0.8306    0.5482   -0.2697 C   0  0  0  0  0  0  0  0  0  0  0  0
    0.6529    0.3844    0.1127 C   0  0  0  0  0  0  0  0  0  0  0  0
    1.5852    1.0590   -0.8619 C   0  0  0  0  0  0  0  0  0  0  0  0
    2.4516    2.0317   -0.4425 C   0  0  0  0  0  0  0  0  0  0  0  0
    3.3232    2.6703   -1.3472 C   0  0  0  0  0  0  0  0  0  0  0  0
    4.2259    3.6724   -0.9350 C   0  0  0  0  0  0  0  0  0  0  0  0
    5.0607    4.2724   -1.8353 C   0  0  0  0  0  0  0  0  0  0  0  0
    5.0305    3.8998   -3.1885 C   0  0  0  0  0  0  0  0  0  0  0  0
    4.1673    2.9314   -3.6188 C   0  0  0  0  0  0  0  0  0  0  0  0
    3.2944    2.2922   -2.7147 C   0  0  0  0  0  0  0  0  0  0  0  0
    2.3940    1.2850   -3.1204 C   0  0  0  0  0  0  0  0  0  0  0  0
    1.5630    0.6839   -2.2199 C   0  0  0  0  0  0  0  0  0  0  0  0
    0.8505   -1.0616    0.1058 N   0  0  0  0  0  0  0  0  0  0  0  0
    1.9664   -1.5757    0.6855 C   0  0  0  0  0  0  0  0  0  0  0  0
    2.1052   -3.0371    0.7460 C   0  0  0  0  0  0  0  0  0  0  0  0
    3.1785   -3.7399    1.2346 C   0  0  0  0  0  0  0  0  0  0  0  0
    2.8476   -5.1057    1.1162 C   0  0  0  0  0  0  0  0  0  0  0  0
    1.6004   -5.1410    0.5692 C   0  0  0  0  0  0  0  0  0  0  0  0
    1.1421   -3.9022    0.3403 O   0  0  0  0  0  0  0  0  0  0  0  0
    2.8355   -0.8494    1.1339 O   0  0  0  0  0  0  0  0  0  0  0  0
   -0.3098   -1.7656   -0.3657 C   0  0  0  0  0  0  0  0  0  0  0  0
   -1.0683   -2.4901    0.7715 C   0  0  0  0  0  0  0  0  0  0  0  0
   -0.6678   -2.0924    1.9742 O   0  0  0  0  0  0  0  0  0  0  0  0
   -1.9485   -3.2818    0.5840 O   0  0  0  0  0  0  0  0  0  0  0  0
   -1.1496   -0.7218   -0.8982 N   0  0  0  0  0  0  0  0  0  0  0  0
   -2.1461   -0.7943   -1.8256 C   0  0  0  0  0  0  0  0  0  0  0  0
   -2.4543   -2.0879   -2.4473 C   0  0  0  0  0  0  0  0  0  0  0  0
   -3.5688   -2.3680   -3.2011 C   0  0  0  0  0  0  0  0  0  0  0  0
   -3.4553   -3.7170   -3.5912 C   0  0  0  0  0  0  0  0  0  0  0  0
   -2.2825   -4.1602   -3.0568 C   0  0  0  0  0  0  0  0  0  0  0  0
   -1.6712   -3.1894   -2.3695 O   0  0  0  0  0  0  0  0  0  0  0  0
   -2.7788    0.2018   -2.1301 O   0  0  0  0  0  0  0  0  0  0  0  0
   -3.0934   -0.7419    0.6629 H   0  0  0  0  0  0  0  0  0  0  0  0
   -4.4640   -0.1485    2.5933 H   0  0  0  0  0  0  0  0  0  0  0  0
   -4.9402    1.3481    4.5011 H   0  0  0  0  0  0  0  0  0  0  0  0
   -4.3789    3.3549    5.8139 H   0  0  0  0  0  0  0  0  0  0  0  0
   -2.4351    4.7355    5.2024 H   0  0  0  0  0  0  0  0  0  0  0  0
   -1.0340    4.1238    3.2713 H   0  0  0  0  0  0  0  0  0  0  0  0
   -0.5645    2.6266    1.3870 H   0  0  0  0  0  0  0  0  0  0  0  0
   -0.9613    1.3330   -1.0251 H   0  0  0  0  0  0  0  0  0  0  0  0
    0.8566    0.7547    1.1230 H   0  0  0  0  0  0  0  0  0  0  0  0
    2.4878    2.3128    0.5998 H   0  0  0  0  0  0  0  0  0  0  0  0
    4.2462    3.9537    0.1079 H   0  0  0  0  0  0  0  0  0  0  0  0
    5.7509    5.0384   -1.5132 H   0  0  0  0  0  0  0  0  0  0  0  0
    5.6974    4.3852   -3.8861 H   0  0  0  0  0  0  0  0  0  0  0  0
    4.1417    2.6406   -4.6594 H   0  0  0  0  0  0  0  0  0  0  0  0
    2.3733    0.9955   -4.1614 H   0  0  0  0  0  0  0  0  0  0  0  0
    0.8783   -0.0860   -2.5448 H   0  0  0  0  0  0  0  0  0  0  0  0
    4.0789   -3.3108    1.6216 H   0  0  0  0  0  0  0  0  0  0  0  0
    3.4511   -5.9435    1.3982 H   0  0  0  0  0  0  0  0  0  0  0  0
    0.9531   -5.9541    0.3049 H   0  0  0  0  0  0  0  0  0  0  0  0
   -0.0625   -2.5069   -1.1345 H   0  0  0  0  0  0  0  0  0  0  0  0
   -1.1871   -2.5187    2.6751 H   0  0  0  0  0  0  0  0  0  0  0  0
   -4.3551   -1.6790   -3.4294 H   0  0  0  0  0  0  0  0  0  0  0  0
   -4.1465   -4.2791   -4.1843 H   0  0  0  0  0  0  0  0  0  0  0  0
   -1.7913   -5.1127   -3.0976 H   0  0  0  0  0  0  0  0  0  0  0  0
  1  2  2  0  0  0  0
  2  3  4  0  0  0  0
  3  4  4  0  0  0  0
  4  5  2  0  0  0  0
  5  6  4  0  0  0  0
  6  7  2  0  0  0  0
  3  8  4  0  0  0  0
  7  8  4  0  0  0  0
  8  9  4  0  0  0  0
  1 10  4  0  0  0  0
  9 10  2  0  0  0  0
 10 11  1  0  0  0  0
 11 12  1  0  0  0  0
 12 13  1  0  0  0  0
 13 14  2  0  0  0  0
 14 15  4  0  0  0  0
 15 16  4  0  0  0  0
 16 17  2  0  0  0  0
 17 18  4  0  0  0  0
 18 19  2  0  0  0  0
 15 20  4  0  0  0  0
 19 20  4  0  0  0  0
 20 21  4  0  0  0  0
 13 22  4  0  0  0  0
 21 22  2  0  0  0  0
 12 23  1  0  0  0  0
 23 24  4  0  0  0  0
 24 25  1  0  0  0  0
 25 26  2  0  0  0  0
 26 27  4  0  0  0  0
 27 28  2  0  0  0  0
 25 29  1  0  0  0  0
 28 29  1  0  0  0  0
 24 30  2  0  0  0  0
 23 31  1  0  0  0  0
 31 32  1  0  0  0  0
 32 33  1  0  0  0  0
 32 34  2  0  0  0  0
 11 35  1  0  0  0  0
 31 35  1  0  0  0  0
 35 36  1  0  0  0  0
 36 37  1  0  0  0  0
 37 38  2  0  0  0  0
 38 39  4  0  0  0  0
 39 40  2  0  0  0  0
 37 41  1  0  0  0  0
 40 41  1  0  0  0  0
 36 42  2  0  0  0  0
  1 43  1  0  0  0  0
  2 44  1  0  0  0  0
  4 45  1  0  0  0  0
  5 46  1  0  0  0  0
  6 47  1  0  0  0  0
  7 48  1  0  0  0  0
  9 49  1  0  0  0  0
 11 50  1  0  0  0  0
 12 51  1  0  0  0  0
 14 52  1  0  0  0  0
 16 53  1  0  0  0  0
 17 54  1  0  0  0  0
 18 55  1  0  0  0  0
 19 56  1  0  0  0  0
 21 57  1  0  0  0  0
 22 58  1  0  0  0  0
 26 59  1  0  0  0  0
 27 60  1  0  0  0  0
 28 61  1  0  0  0  0
 31 62  1  0  0  0  0
 33 63  1  0  0  0  0
 38 64  1  0  0  0  0
 39 65  1  0  0  0  0
 40 66  1  0  0  0  0
M  END
