72

C     -2.431014    1.508447   -0.037729
C     -3.584808    2.291914   -0.128009
C     -4.184810    2.547010   -1.369826
C     -5.338088    3.341608   -1.477224
C     -5.920143    3.588988   -2.722496
C     -5.358593    3.044434   -3.873785
C     -4.214612    2.249735   -3.782177
C     -3.614349    1.993856   -2.537567
C     -2.456445    1.204444   -2.430904
C     -1.844317    0.961711   -1.188498
C     -0.563492    0.127307   -1.134877
C      0.589136    0.888303   -0.430484
C      1.936049    0.858207   -1.143426
C      2.779426    1.982417   -1.046607
C      4.034904    2.024015   -1.677226
C      4.864225    3.154320   -1.587705
C      6.107493    3.181567   -2.222207
C      6.540460    2.076289   -2.948696
C      5.728090    0.945092   -3.045898
C      4.472034    0.905743   -2.417468
C      3.641992   -0.221166   -2.504285
C      2.393114   -0.244745   -1.874585
N      0.679709    0.262226    0.891660
C      1.097452    0.985524    1.987954
C      1.212187    0.284555    3.276363
C      2.396145   -0.394391    3.577060
C      2.515604   -1.046797    4.803932
C      1.461903   -1.007433    5.720744
C      0.288931   -0.309742    5.419360
C      0.162380    0.347342    4.195738
O      1.376737    2.179172    1.963348
C     -0.018108   -1.021013    0.925350
C      0.991949   -2.193983    1.030945
O      0.830593   -2.912840    2.165692
O      1.850844   -2.519841    0.227719
N     -0.756499   -1.082239   -0.334203
C     -1.558097   -2.110340   -0.786273
C     -1.890902   -3.207316    0.143301
C     -2.633805   -2.956652    1.301447
C     -2.917846   -4.006756    2.174904
C     -2.476828   -5.299284    1.879991
C     -1.771452   -5.552064    0.702498
C     -1.479128   -4.505617   -0.171830
O     -1.980985   -2.184174   -1.935062
H     -1.993348    1.344131    0.943413
H     -4.009575    2.710792    0.782012
H     -5.789696    3.777842   -0.588693
H     -6.811253    4.206636   -2.791808
H     -5.809761    3.235927   -4.844184
H     -3.791284    1.829291   -4.692564
H     -2.027306    0.766233   -3.331658
H     -0.303685   -0.168877   -2.157887
H      0.320236    1.946030   -0.306260
H      2.452783    2.841909   -0.459578
H      4.542504    4.026618   -1.022261
H      6.736180    4.065428   -2.147441
H      7.508207    2.095060   -3.442377
H      6.082136    0.090221   -3.617859
H      3.963462   -1.099125   -3.060851
H      1.796583   -1.150567   -1.961594
H      3.219150   -0.409965    2.866448
H      3.431496   -1.579053    5.049355
H      1.559267   -1.511082    6.680703
H     -0.520114   -0.269446    6.145587
H     -0.739547    0.909756    3.968623
H     -0.719464   -1.041248    1.763824
H      1.507516   -3.619021    2.104589
H     -2.997181   -1.955981    1.521742
H     -3.474168   -3.817070    3.088222
H     -2.703698   -6.118866    2.558826
H     -1.452269   -6.564296    0.465795
H     -0.934208   -4.699107   -1.093080
