
  xtb     03162221253D
 xtb: 6.3.3 (4ae9cef)
 72 78  0     0  0            999 V2000
   -2.3254    1.8495   -0.0128 C   0  0  0  0  0  0  0  0  0  0  0  0
   -3.4978    2.5475   -0.0619 C   0  0  0  0  0  0  0  0  0  0  0  0
   -4.2243    2.6607   -1.2656 C   0  0  0  0  0  0  0  0  0  0  0  0
   -5.4329    3.3818   -1.3515 C   0  0  0  0  0  0  0  0  0  0  0  0
   -6.1082    3.4706   -2.5365 C   0  0  0  0  0  0  0  0  0  0  0  0
   -5.6081    2.8404   -3.6871 C   0  0  0  0  0  0  0  0  0  0  0  0
   -4.4396    2.1336   -3.6356 C   0  0  0  0  0  0  0  0  0  0  0  0
   -3.7167    2.0260   -2.4291 C   0  0  0  0  0  0  0  0  0  0  0  0
   -2.5055    1.3101   -2.3452 C   0  0  0  0  0  0  0  0  0  0  0  0
   -1.8117    1.2239   -1.1672 C   0  0  0  0  0  0  0  0  0  0  0  0
   -0.5320    0.4269   -1.0985 C   0  0  0  0  0  0  0  0  0  0  0  0
    0.5973    1.1237   -0.3324 C   0  0  0  0  0  0  0  0  0  0  0  0
    1.9459    0.9811   -0.9934 C   0  0  0  0  0  0  0  0  0  0  0  0
    2.7045    2.0891   -1.2624 C   0  0  0  0  0  0  0  0  0  0  0  0
    3.9711    1.9744   -1.8693 C   0  0  0  0  0  0  0  0  0  0  0  0
    4.7714    3.1016   -2.1500 C   0  0  0  0  0  0  0  0  0  0  0  0
    5.9981    2.9579   -2.7347 C   0  0  0  0  0  0  0  0  0  0  0  0
    6.4810    1.6822   -3.0671 C   0  0  0  0  0  0  0  0  0  0  0  0
    5.7293    0.5707   -2.8077 C   0  0  0  0  0  0  0  0  0  0  0  0
    4.4601    0.6849   -2.2040 C   0  0  0  0  0  0  0  0  0  0  0  0
    3.6588   -0.4390   -1.9149 C   0  0  0  0  0  0  0  0  0  0  0  0
    2.4350   -0.2974   -1.3270 C   0  0  0  0  0  0  0  0  0  0  0  0
    0.5671    0.4718    0.9774 N   0  0  0  0  0  0  0  0  0  0  0  0
    1.3241    0.9546    1.9965 C   0  0  0  0  0  0  0  0  0  0  0  0
    1.2691    0.1505    3.2570 C   0  0  0  0  0  0  0  0  0  0  0  0
    2.3614   -0.6371    3.5990 C   0  0  0  0  0  0  0  0  0  0  0  0
    2.3422   -1.3703    4.7725 C   0  0  0  0  0  0  0  0  0  0  0  0
    1.2429   -1.3079    5.6129 C   0  0  0  0  0  0  0  0  0  0  0  0
    0.1636   -0.5049    5.2843 C   0  0  0  0  0  0  0  0  0  0  0  0
    0.1743    0.2241    4.1087 C   0  0  0  0  0  0  0  0  0  0  0  0
    1.9863    1.9626    1.8801 O   0  0  0  0  0  0  0  0  0  0  0  0
   -0.2876   -0.6952    1.0121 C   0  0  0  0  0  0  0  0  0  0  0  0
    0.4890   -1.9485    1.4643 C   0  0  0  0  0  0  0  0  0  0  0  0
   -0.0543   -2.4849    2.5550 O   0  0  0  0  0  0  0  0  0  0  0  0
    1.4680   -2.3795    0.9261 O   0  0  0  0  0  0  0  0  0  0  0  0
   -0.7531   -0.8073   -0.3472 N   0  0  0  0  0  0  0  0  0  0  0  0
   -1.2164   -1.9198   -0.9763 C   0  0  0  0  0  0  0  0  0  0  0  0
   -1.4773   -3.0893   -0.0853 C   0  0  0  0  0  0  0  0  0  0  0  0
   -2.4772   -3.0203    0.8785 C   0  0  0  0  0  0  0  0  0  0  0  0
   -2.7528   -4.1226    1.6670 C   0  0  0  0  0  0  0  0  0  0  0  0
   -2.0315   -5.2936    1.4996 C   0  0  0  0  0  0  0  0  0  0  0  0
   -1.0480   -5.3702    0.5270 C   0  0  0  0  0  0  0  0  0  0  0  0
   -0.7782   -4.2753   -0.2747 C   0  0  0  0  0  0  0  0  0  0  0  0
   -1.4276   -1.9368   -2.1701 O   0  0  0  0  0  0  0  0  0  0  0  0
   -1.7798    1.7818    0.9172 H   0  0  0  0  0  0  0  0  0  0  0  0
   -3.8857    3.0274    0.8256 H   0  0  0  0  0  0  0  0  0  0  0  0
   -5.8144    3.8646   -0.4629 H   0  0  0  0  0  0  0  0  0  0  0  0
   -7.0326    4.0263   -2.5969 H   0  0  0  0  0  0  0  0  0  0  0  0
   -6.1566    2.9206   -4.6142 H   0  0  0  0  0  0  0  0  0  0  0  0
   -4.0502    1.6453   -4.5170 H   0  0  0  0  0  0  0  0  0  0  0  0
   -2.1297    0.8170   -3.2296 H   0  0  0  0  0  0  0  0  0  0  0  0
   -0.2231    0.1520   -2.1123 H   0  0  0  0  0  0  0  0  0  0  0  0
    0.3872    2.1901   -0.1899 H   0  0  0  0  0  0  0  0  0  0  0  0
    2.3437    3.0721   -0.9968 H   0  0  0  0  0  0  0  0  0  0  0  0
    4.3961    4.0808   -1.8897 H   0  0  0  0  0  0  0  0  0  0  0  0
    6.6072    3.8250   -2.9455 H   0  0  0  0  0  0  0  0  0  0  0  0
    7.4532    1.5880   -3.5289 H   0  0  0  0  0  0  0  0  0  0  0  0
    6.0969   -0.4139   -3.0602 H   0  0  0  0  0  0  0  0  0  0  0  0
    4.0312   -1.4222   -2.1641 H   0  0  0  0  0  0  0  0  0  0  0  0
    1.8440   -1.1711   -1.1015 H   0  0  0  0  0  0  0  0  0  0  0  0
    3.2152   -0.6742    2.9389 H   0  0  0  0  0  0  0  0  0  0  0  0
    3.1899   -1.9865    5.0334 H   0  0  0  0  0  0  0  0  0  0  0  0
    1.2314   -1.8781    6.5300 H   0  0  0  0  0  0  0  0  0  0  0  0
   -0.6873   -0.4447    5.9462 H   0  0  0  0  0  0  0  0  0  0  0  0
   -0.6615    0.8618    3.8584 H   0  0  0  0  0  0  0  0  0  0  0  0
   -1.1206   -0.5569    1.7251 H   0  0  0  0  0  0  0  0  0  0  0  0
    0.4468   -3.2640    2.8462 H   0  0  0  0  0  0  0  0  0  0  0  0
   -3.0459   -2.1092    0.9972 H   0  0  0  0  0  0  0  0  0  0  0  0
   -3.5316   -4.0685    2.4127 H   0  0  0  0  0  0  0  0  0  0  0  0
   -2.2440   -6.1509    2.1211 H   0  0  0  0  0  0  0  0  0  0  0  0
   -0.4944   -6.2868    0.3873 H   0  0  0  0  0  0  0  0  0  0  0  0
   -0.0192   -4.3260   -1.0403 H   0  0  0  0  0  0  0  0  0  0  0  0
  1  2  2  0  0  0  0
  2  3  4  0  0  0  0
  3  4  4  0  0  0  0
  4  5  2  0  0  0  0
  5  6  4  0  0  0  0
  6  7  2  0  0  0  0
  3  8  4  0  0  0  0
  7  8  4  0  0  0  0
  8  9  4  0  0  0  0
  1 10  4  0  0  0  0
  9 10  2  0  0  0  0
 10 11  1  0  0  0  0
 11 12  1  0  0  0  0
 12 13  1  0  0  0  0
 13 14  2  0  0  0  0
 14 15  4  0  0  0  0
 15 16  4  0  0  0  0
 16 17  2  0  0  0  0
 17 18  4  0  0  0  0
 18 19  2  0  0  0  0
 15 20  4  0  0  0  0
 19 20  4  0  0  0  0
 20 21  4  0  0  0  0
 13 22  4  0  0  0  0
 21 22  2  0  0  0  0
 12 23  1  0  0  0  0
 23 24  4  0  0  0  0
 24 25  1  0  0  0  0
 25 26  4  0  0  0  0
 26 27  4  0  0  0  0
 27 28  4  0  0  0  0
 28 29  4  0  0  0  0
 25 30  4  0  0  0  0
 29 30  4  0  0  0  0
 24 31  2  0  0  0  0
 23 32  1  0  0  0  0
 32 33  1  0  0  0  0
 33 34  1  0  0  0  0
 33 35  2  0  0  0  0
 11 36  1  0  0  0  0
 32 36  1  0  0  0  0
 36 37  4  0  0  0  0
 37 38  1  0  0  0  0
 38 39  4  0  0  0  0
 39 40  4  0  0  0  0
 40 41  4  0  0  0  0
 41 42  4  0  0  0  0
 38 43  4  0  0  0  0
 42 43  4  0  0  0  0
 37 44  2  0  0  0  0
  1 45  1  0  0  0  0
  2 46  1  0  0  0  0
  4 47  1  0  0  0  0
  5 48  1  0  0  0  0
  6 49  1  0  0  0  0
  7 50  1  0  0  0  0
  9 51  1  0  0  0  0
 11 52  1  0  0  0  0
 12 53  1  0  0  0  0
 14 54  1  0  0  0  0
 16 55  1  0  0  0  0
 17 56  1  0  0  0  0
 18 57  1  0  0  0  0
 19 58  1  0  0  0  0
 21 59  1  0  0  0  0
 22 60  1  0  0  0  0
 26 61  1  0  0  0  0
 27 62  1  0  0  0  0
 28 63  1  0  0  0  0
 29 64  1  0  0  0  0
 30 65  1  0  0  0  0
 32 66  1  0  0  0  0
 34 67  1  0  0  0  0
 39 68  1  0  0  0  0
 40 69  1  0  0  0  0
 41 70  1  0  0  0  0
 42 71  1  0  0  0  0
 43 72  1  0  0  0  0
M  END
