
  xtb     03172202203D
 xtb: 6.3.3 (4ae9cef)
 28 30  0     0  0            999 V2000
    4.8774    0.3166   -0.5038 C   0  0  0  0  0  0  0  0  0  0  0  0
    3.4126    0.0773   -0.3211 C   0  0  0  0  0  0  0  0  0  0  0  0
    2.5634    1.0647    0.1716 C   0  0  0  0  0  0  0  0  0  0  0  0
    1.2125    0.8126    0.3068 C   0  0  0  0  0  0  0  0  0  0  0  0
    2.8292   -1.1453   -0.6335 C   0  0  0  0  0  0  0  0  0  0  0  0
    1.5406   -1.3996   -0.5213 N   0  0  0  0  0  0  0  0  0  0  0  0
    0.7327   -0.4410   -0.0790 C   0  0  0  0  0  0  0  0  0  0  0  0
   -0.6070   -0.7907    0.0287 N   0  0  0  0  0  0  0  0  0  0  0  0
   -1.0213   -2.0810    0.2811 C   0  0  0  0  0  0  0  0  0  0  0  0
   -2.3688   -2.1299    0.4106 C   0  0  0  0  0  0  0  0  0  0  0  0
   -2.8568   -0.8055    0.2050 C   0  0  0  0  0  0  0  0  0  0  0  0
   -1.7269    0.0124   -0.0443 C   0  0  0  0  0  0  0  0  0  0  0  0
   -1.8808    1.3534   -0.3736 C   0  0  0  0  0  0  0  0  0  0  0  0
   -3.1587    1.8753   -0.3847 C   0  0  0  0  0  0  0  0  0  0  0  0
   -4.2718    1.0878   -0.0902 C   0  0  0  0  0  0  0  0  0  0  0  0
   -4.1350   -0.2534    0.1917 C   0  0  0  0  0  0  0  0  0  0  0  0
    5.4392   -0.6042   -0.3648 H   0  0  0  0  0  0  0  0  0  0  0  0
    5.0725    0.6814   -1.5129 H   0  0  0  0  0  0  0  0  0  0  0  0
    5.2376    1.0634    0.2004 H   0  0  0  0  0  0  0  0  0  0  0  0
    2.9648    2.0249    0.4649 H   0  0  0  0  0  0  0  0  0  0  0  0
    0.5535    1.5482    0.7370 H   0  0  0  0  0  0  0  0  0  0  0  0
    3.4304   -1.9707   -0.9940 H   0  0  0  0  0  0  0  0  0  0  0  0
   -0.2858   -2.8569    0.3599 H   0  0  0  0  0  0  0  0  0  0  0  0
   -2.9614   -2.9967    0.6257 H   0  0  0  0  0  0  0  0  0  0  0  0
   -1.0406    1.9744   -0.6429 H   0  0  0  0  0  0  0  0  0  0  0  0
   -3.3008    2.9165   -0.6343 H   0  0  0  0  0  0  0  0  0  0  0  0
   -5.2533    1.5386   -0.1031 H   0  0  0  0  0  0  0  0  0  0  0  0
   -4.9971   -0.8727    0.3902 H   0  0  0  0  0  0  0  0  0  0  0  0
  1  2  1  0  0  0  0
  2  3  4  0  0  0  0
  3  4  4  0  0  0  0
  2  5  4  0  0  0  0
  5  6  4  0  0  0  0
  4  7  4  0  0  0  0
  6  7  4  0  0  0  0
  7  8  1  0  0  0  0
  8  9  1  0  0  0  0
  9 10  2  0  0  0  0
 10 11  4  0  0  0  0
  8 12  1  0  0  0  0
 11 12  4  0  0  0  0
 12 13  4  0  0  0  0
 13 14  4  0  0  0  0
 14 15  4  0  0  0  0
 11 16  4  0  0  0  0
 15 16  4  0  0  0  0
  1 17  1  0  0  0  0
  1 18  1  0  0  0  0
  1 19  1  0  0  0  0
  3 20  1  0  0  0  0
  4 21  1  0  0  0  0
  5 22  1  0  0  0  0
  9 23  1  0  0  0  0
 10 24  1  0  0  0  0
 13 25  1  0  0  0  0
 14 26  1  0  0  0  0
 15 27  1  0  0  0  0
 16 28  1  0  0  0  0
M  END
