66

C     -5.609205   -0.483526   -0.515763
C     -5.823782   -0.867678    0.803748
C     -4.741568   -0.996691    1.657526
C     -3.447165   -0.738374    1.192017
C     -3.181534   -0.337398   -0.141539
C     -4.314224   -0.222390   -0.996092
C     -4.155744    0.149415   -2.334721
C     -2.895965    0.400665   -2.856330
C     -1.776130    0.295681   -2.038788
C     -1.877991   -0.058155   -0.676300
C     -0.604313   -0.139583    0.181774
C      0.647272   -0.709407   -0.553527
C      1.283131   -1.820209    0.292029
C      2.119621   -1.474175    1.371227
C      2.705922   -2.447300    2.171087
C      2.449993   -3.789971    1.922966
C      1.590975   -4.179310    0.887667
C      0.982312   -3.199460    0.058723
C      0.096803   -3.670552   -0.942492
C     -0.157359   -5.033152   -1.127684
C      0.463419   -5.971052   -0.317190
C      1.329305   -5.545109    0.685732
N      1.520326    0.458126   -0.767208
C      2.665670    0.364830   -1.535383
C      3.515257    1.546366   -1.646758
C      3.646734    2.217416   -2.852816
S      4.664248    3.587301   -2.753039
C      5.035919    3.252878   -1.119305
C      4.377988    2.132121   -0.671202
Br     4.649551    1.427305    1.061059
O      2.948286   -0.655201   -2.157361
C      0.962757    1.663089   -0.165572
C      0.434923    2.745203   -1.156770
O      0.613127    2.461419   -2.464441
O     -0.115327    3.793438   -0.854630
N     -0.149462    1.183556    0.643926
C     -0.588380    1.720798    1.839776
C     -0.012113    2.986687    2.268852
C      1.244591    3.089058    2.842619
S      1.658782    4.699583    3.250039
C      0.126043    5.274743    2.754438
C     -0.662340    4.255782    2.277097
Br    -2.437276    4.508221    1.672333
O     -1.402554    1.153292    2.560217
H     -6.471332   -0.388723   -1.173200
H     -6.830505   -1.062450    1.162548
H     -4.893419   -1.291753    2.692714
H     -2.649272   -0.852585    1.920063
H     -5.020117    0.238935   -2.989694
H     -2.784965    0.674916   -3.902264
H     -0.813573    0.484010   -2.505160
H     -0.810333   -0.761829    1.056299
H      0.433121   -1.105438   -1.548871
H      2.315478   -0.434013    1.607896
H      3.358629   -2.161418    2.991569
H      2.919035   -4.536429    2.560478
H     -0.426165   -2.987659   -1.605724
H     -0.842935   -5.354841   -1.907805
H      0.272167   -7.030875   -0.460018
H      1.799406   -6.294994    1.319168
H      3.163664    1.974440   -3.790971
H      5.734677    3.880474   -0.582646
H      1.732603    2.137296    0.441199
H      0.205635    3.229066   -2.922419
H      1.948622    2.292073    3.040407
H     -0.120945    6.323515    2.846491
