
  xtb     03172200423D
 xtb: 6.3.3 (4ae9cef)
 66 72  0     0  0            999 V2000
   -5.2945    0.4920   -1.0787 C   0  0  0  0  0  0  0  0  0  0  0  0
   -5.6383    0.3284    0.2321 C   0  0  0  0  0  0  0  0  0  0  0  0
   -4.6580   -0.0391    1.1630 C   0  0  0  0  0  0  0  0  0  0  0  0
   -3.3591   -0.2260    0.7775 C   0  0  0  0  0  0  0  0  0  0  0  0
   -2.9603   -0.0484   -0.5657 C   0  0  0  0  0  0  0  0  0  0  0  0
   -3.9640    0.3086   -1.5094 C   0  0  0  0  0  0  0  0  0  0  0  0
   -3.6223    0.4752   -2.8663 C   0  0  0  0  0  0  0  0  0  0  0  0
   -2.3345    0.3004   -3.2785 C   0  0  0  0  0  0  0  0  0  0  0  0
   -1.3369   -0.0333   -2.3528 C   0  0  0  0  0  0  0  0  0  0  0  0
   -1.6190   -0.2083   -1.0207 C   0  0  0  0  0  0  0  0  0  0  0  0
   -0.5239   -0.5420   -0.0247 C   0  0  0  0  0  0  0  0  0  0  0  0
    0.8229   -0.9747   -0.6306 C   0  0  0  0  0  0  0  0  0  0  0  0
    1.5428   -1.9146    0.3095 C   0  0  0  0  0  0  0  0  0  0  0  0
    2.5866   -1.4940    1.0889 C   0  0  0  0  0  0  0  0  0  0  0  0
    3.2349   -2.3691    1.9723 C   0  0  0  0  0  0  0  0  0  0  0  0
    2.8298   -3.6675    2.0715 C   0  0  0  0  0  0  0  0  0  0  0  0
    1.7560   -4.1443    1.2905 C   0  0  0  0  0  0  0  0  0  0  0  0
    1.0920   -3.2615    0.3966 C   0  0  0  0  0  0  0  0  0  0  0  0
    0.0133   -3.7692   -0.3614 C   0  0  0  0  0  0  0  0  0  0  0  0
   -0.3766   -5.0750   -0.2462 C   0  0  0  0  0  0  0  0  0  0  0  0
    0.2852   -5.9443    0.6318 C   0  0  0  0  0  0  0  0  0  0  0  0
    1.3286   -5.4852    1.3839 C   0  0  0  0  0  0  0  0  0  0  0  0
    1.4967    0.3038   -0.8246 N   0  0  0  0  0  0  0  0  0  0  0  0
    2.2772    0.5287   -1.9080 C   0  0  0  0  0  0  0  0  0  0  0  0
    2.7729    1.9323   -2.0554 C   0  0  0  0  0  0  0  0  0  0  0  0
    2.4359    2.7039   -3.1273 C   0  0  0  0  0  0  0  0  0  0  0  0
    3.1619    4.2572   -3.0873 S   0  0  0  0  0  0  0  0  0  0  0  0
    3.9762    3.8780   -1.6293 C   0  0  0  0  0  0  0  0  0  0  0  0
    3.6783    2.6231   -1.2039 C   0  0  0  0  0  0  0  0  0  0  0  0
    4.4480    1.8933    0.3536 Br  0  0  0  0  0  0  0  0  0  0  0  0
    2.5331   -0.3340   -2.7195 O   0  0  0  0  0  0  0  0  0  0  0  0
    0.9871    1.3054    0.0843 C   0  0  0  0  0  0  0  0  0  0  0  0
    0.5571    2.6206   -0.5999 C   0  0  0  0  0  0  0  0  0  0  0  0
   -0.3244    2.4478   -1.5672 O   0  0  0  0  0  0  0  0  0  0  0  0
    0.9664    3.6916   -0.2371 O   0  0  0  0  0  0  0  0  0  0  0  0
   -0.1224    0.6452    0.7362 N   0  0  0  0  0  0  0  0  0  0  0  0
   -0.3273    0.7398    2.0802 C   0  0  0  0  0  0  0  0  0  0  0  0
    0.1495    2.0344    2.6499 C   0  0  0  0  0  0  0  0  0  0  0  0
    1.2046    2.2104    3.4892 C   0  0  0  0  0  0  0  0  0  0  0  0
    1.4180    3.8555    3.9360 S   0  0  0  0  0  0  0  0  0  0  0  0
    0.0567    4.3301    3.0088 C   0  0  0  0  0  0  0  0  0  0  0  0
   -0.5094    3.2664    2.3831 C   0  0  0  0  0  0  0  0  0  0  0  0
   -2.0454    3.3925    1.2891 Br  0  0  0  0  0  0  0  0  0  0  0  0
   -0.9104   -0.0972    2.7298 O   0  0  0  0  0  0  0  0  0  0  0  0
   -6.0380    0.7664   -1.8137 H   0  0  0  0  0  0  0  0  0  0  0  0
   -6.6580    0.4743    0.5563 H   0  0  0  0  0  0  0  0  0  0  0  0
   -4.9326   -0.1770    2.1982 H   0  0  0  0  0  0  0  0  0  0  0  0
   -2.6415   -0.5085    1.5287 H   0  0  0  0  0  0  0  0  0  0  0  0
   -4.3984    0.7420   -3.5691 H   0  0  0  0  0  0  0  0  0  0  0  0
   -2.0656    0.4208   -4.3175 H   0  0  0  0  0  0  0  0  0  0  0  0
   -0.3325   -0.1386   -2.7310 H   0  0  0  0  0  0  0  0  0  0  0  0
   -0.8812   -1.2855    0.6934 H   0  0  0  0  0  0  0  0  0  0  0  0
    0.7347   -1.4573   -1.6064 H   0  0  0  0  0  0  0  0  0  0  0  0
    2.9437   -0.4787    1.0256 H   0  0  0  0  0  0  0  0  0  0  0  0
    4.0568   -1.9983    2.5659 H   0  0  0  0  0  0  0  0  0  0  0  0
    3.3227   -4.3507    2.7478 H   0  0  0  0  0  0  0  0  0  0  0  0
   -0.5196   -3.1246   -1.0433 H   0  0  0  0  0  0  0  0  0  0  0  0
   -1.2029   -5.4435   -0.8360 H   0  0  0  0  0  0  0  0  0  0  0  0
   -0.0360   -6.9726    0.7073 H   0  0  0  0  0  0  0  0  0  0  0  0
    1.8469   -6.1436    2.0662 H   0  0  0  0  0  0  0  0  0  0  0  0
    1.7826    2.4349   -3.9334 H   0  0  0  0  0  0  0  0  0  0  0  0
    4.6241    4.5915   -1.1613 H   0  0  0  0  0  0  0  0  0  0  0  0
    1.7371    1.5973    0.8380 H   0  0  0  0  0  0  0  0  0  0  0  0
   -0.6551    3.2969   -1.9052 H   0  0  0  0  0  0  0  0  0  0  0  0
    1.8774    1.4624    3.8587 H   0  0  0  0  0  0  0  0  0  0  0  0
   -0.2497    5.3556    2.9675 H   0  0  0  0  0  0  0  0  0  0  0  0
  1  2  2  0  0  0  0
  2  3  4  0  0  0  0
  3  4  2  0  0  0  0
  4  5  4  0  0  0  0
  1  6  4  0  0  0  0
  5  6  4  0  0  0  0
  6  7  4  0  0  0  0
  7  8  2  0  0  0  0
  8  9  4  0  0  0  0
  5 10  4  0  0  0  0
  9 10  2  0  0  0  0
 10 11  1  0  0  0  0
 11 12  1  0  0  0  0
 12 13  1  0  0  0  0
 13 14  2  0  0  0  0
 14 15  4  0  0  0  0
 15 16  2  0  0  0  0
 16 17  4  0  0  0  0
 13 18  4  0  0  0  0
 17 18  4  0  0  0  0
 18 19  4  0  0  0  0
 19 20  2  0  0  0  0
 20 21  4  0  0  0  0
 17 22  4  0  0  0  0
 21 22  2  0  0  0  0
 12 23  1  0  0  0  0
 23 24  4  0  0  0  0
 24 25  1  0  0  0  0
 25 26  2  0  0  0  0
 26 27  1  0  0  0  0
 27 28  1  0  0  0  0
 25 29  4  0  0  0  0
 28 29  2  0  0  0  0
 29 30  1  0  0  0  0
 24 31  2  0  0  0  0
 23 32  1  0  0  0  0
 32 33  1  0  0  0  0
 33 34  1  0  0  0  0
 33 35  2  0  0  0  0
 11 36  1  0  0  0  0
 32 36  1  0  0  0  0
 36 37  4  0  0  0  0
 37 38  1  0  0  0  0
 38 39  2  0  0  0  0
 39 40  1  0  0  0  0
 40 41  1  0  0  0  0
 38 42  4  0  0  0  0
 41 42  2  0  0  0  0
 42 43  1  0  0  0  0
 37 44  2  0  0  0  0
  1 45  1  0  0  0  0
  2 46  1  0  0  0  0
  3 47  1  0  0  0  0
  4 48  1  0  0  0  0
  7 49  1  0  0  0  0
  8 50  1  0  0  0  0
  9 51  1  0  0  0  0
 11 52  1  0  0  0  0
 12 53  1  0  0  0  0
 14 54  1  0  0  0  0
 15 55  1  0  0  0  0
 16 56  1  0  0  0  0
 19 57  1  0  0  0  0
 20 58  1  0  0  0  0
 21 59  1  0  0  0  0
 22 60  1  0  0  0  0
 26 61  1  0  0  0  0
 28 62  1  0  0  0  0
 32 63  1  0  0  0  0
 34 64  1  0  0  0  0
 39 65  1  0  0  0  0
 41 66  1  0  0  0  0
M  END
