68

C      2.160842   -2.930954    1.154229
O      2.058624   -3.503113   -0.088019
C      3.339129   -3.564901   -0.717859
C      2.696631   -3.679841    2.205307
C      2.793627   -3.121220    3.476055
C      2.344317   -1.821764    3.693758
C      1.785432   -1.083930    2.645513
C      1.670045   -1.629265    1.356233
C      1.020317   -0.883056    0.202142
C     -0.516030   -1.137427    0.102224
C     -0.846675   -2.063960   -1.057169
C     -0.668800   -1.650532   -2.391457
C     -0.927426   -2.520293   -3.452687
C     -1.358484   -3.819994   -3.199989
C     -1.540491   -4.247334   -1.886170
C     -1.306390   -3.368697   -0.825436
O     -1.450009   -3.813874    0.463941
C     -2.831752   -3.984816    0.786213
N     -1.094086    0.207235   -0.060535
C     -2.457099    0.409857   -0.180451
C     -2.938968    1.785391   -0.442187
C     -3.907810    2.335327    0.403139
C     -4.383316    3.625930    0.164414
C     -3.900926    4.349599   -0.926455
Br    -4.546320    6.096540   -1.248735
C     -2.950775    3.795162   -1.786799
C     -2.475423    2.503545   -1.551093
O     -3.299394   -0.477514   -0.095889
C     -0.147971    1.218103    0.386606
C     -0.346085    1.666046    1.871247
O     -1.458949    1.188220    2.467633
O      0.403893    2.386647    2.515570
N      1.154195    0.581030    0.260935
C      2.338780    1.190318   -0.101837
C      2.344326    2.652368   -0.281075
C      2.024714    3.186295   -1.533946
C      2.019375    4.570491   -1.707564
C      2.346736    5.403233   -0.635534
Br     2.331829    7.278587   -0.871359
C      2.690570    4.866699    0.606144
C      2.698474    3.482380    0.783435
O      3.381468    0.589012   -0.335506
H      3.954095   -4.353584   -0.272718
H      3.179917   -3.812613   -1.771914
H      3.860984   -2.601728   -0.671836
H      3.033249   -4.698212    2.033605
H      3.217864   -3.697499    4.293707
H      2.429703   -1.378612    4.682250
H      1.453915   -0.073988    2.859622
H      1.531694   -1.173070   -0.725074
H     -0.919853   -1.521307    1.046809
H     -0.315555   -0.646218   -2.611396
H     -0.781392   -2.187096   -4.477005
H     -1.543035   -4.503383   -4.023015
H     -1.852296   -5.268757   -1.690571
H     -3.409996   -3.078885    0.576771
H     -3.258829   -4.840667    0.254337
H     -2.899579   -4.187530    1.858779
H     -4.290451    1.757641    1.241827
H     -5.133796    4.052627    0.825480
H     -2.590011    4.354248   -2.646535
H     -1.760991    2.058010   -2.239081
H     -0.225952    2.111594   -0.233151
H     -1.418587    1.530471    3.385216
H      1.791054    2.531033   -2.368488
H      1.773638    4.989665   -2.680254
H      2.955604    5.514420    1.437975
H      2.968463    3.057911    1.747676
