
  xtb     03162223453D
 xtb: 6.3.3 (4ae9cef)
 68 72  0     0  0            999 V2000
    1.7591   -2.4415    0.0572 C   0  0  0  0  0  0  0  0  0  0  0  0
    2.2037   -1.4959    0.9365 O   0  0  0  0  0  0  0  0  0  0  0  0
    3.1938   -1.8510    1.8718 C   0  0  0  0  0  0  0  0  0  0  0  0
    2.1584   -3.7721    0.0831 C   0  0  0  0  0  0  0  0  0  0  0  0
    1.6416   -4.6771   -0.8281 C   0  0  0  0  0  0  0  0  0  0  0  0
    0.7226   -4.2680   -1.7744 C   0  0  0  0  0  0  0  0  0  0  0  0
    0.3329   -2.9409   -1.8122 C   0  0  0  0  0  0  0  0  0  0  0  0
    0.8396   -2.0176   -0.9135 C   0  0  0  0  0  0  0  0  0  0  0  0
    0.3828   -0.5874   -0.9950 C   0  0  0  0  0  0  0  0  0  0  0  0
   -0.5713   -0.1987    0.1634 C   0  0  0  0  0  0  0  0  0  0  0  0
   -1.9848   -0.5861   -0.1569 C   0  0  0  0  0  0  0  0  0  0  0  0
   -2.6300   -0.1238   -1.2937 C   0  0  0  0  0  0  0  0  0  0  0  0
   -3.9237   -0.5131   -1.5915 C   0  0  0  0  0  0  0  0  0  0  0  0
   -4.5809   -1.3869   -0.7471 C   0  0  0  0  0  0  0  0  0  0  0  0
   -3.9503   -1.8782    0.3825 C   0  0  0  0  0  0  0  0  0  0  0  0
   -2.6505   -1.4903    0.6875 C   0  0  0  0  0  0  0  0  0  0  0  0
   -1.9602   -1.9221    1.7775 O   0  0  0  0  0  0  0  0  0  0  0  0
   -2.5815   -2.8232    2.6626 C   0  0  0  0  0  0  0  0  0  0  0  0
   -0.2705    1.2310    0.3378 N   0  0  0  0  0  0  0  0  0  0  0  0
   -1.1256    2.2174   -0.0598 C   0  0  0  0  0  0  0  0  0  0  0  0
   -2.4713    2.1449    0.5030 C   0  0  0  0  0  0  0  0  0  0  0  0
   -3.6094    2.6743   -0.0419 C   0  0  0  0  0  0  0  0  0  0  0  0
   -4.7513    2.4966    0.7682 C   0  0  0  0  0  0  0  0  0  0  0  0
   -6.1179    2.9515    0.3807 C   0  0  0  0  0  0  0  0  0  0  0  0
   -4.4404    1.8602    1.9343 C   0  0  0  0  0  0  0  0  0  0  0  0
   -2.7793    1.4558    2.0611 S   0  0  0  0  0  0  0  0  0  0  0  0
   -0.8081    3.1571   -0.7863 O   0  0  0  0  0  0  0  0  0  0  0  0
    1.1900    1.2672    0.2330 C   0  0  0  0  0  0  0  0  0  0  0  0
    1.9114    2.6444    0.2141 C   0  0  0  0  0  0  0  0  0  0  0  0
    1.7019    3.4426   -0.8046 O   0  0  0  0  0  0  0  0  0  0  0  0
    2.6581    2.9065    1.1175 O   0  0  0  0  0  0  0  0  0  0  0  0
    1.4651    0.3834   -0.8860 N   0  0  0  0  0  0  0  0  0  0  0  0
    2.4004    0.4276   -1.8744 C   0  0  0  0  0  0  0  0  0  0  0  0
    3.5832    1.2560   -1.6034 C   0  0  0  0  0  0  0  0  0  0  0  0
    4.3598    1.2620   -0.4811 C   0  0  0  0  0  0  0  0  0  0  0  0
    5.4867    2.1101   -0.5862 C   0  0  0  0  0  0  0  0  0  0  0  0
    6.4554    2.3252    0.5276 C   0  0  0  0  0  0  0  0  0  0  0  0
    5.5433    2.7141   -1.8055 C   0  0  0  0  0  0  0  0  0  0  0  0
    4.2534    2.2585   -2.8421 S   0  0  0  0  0  0  0  0  0  0  0  0
    2.2665   -0.2316   -2.8886 O   0  0  0  0  0  0  0  0  0  0  0  0
    3.4081   -0.9424    2.4340 H   0  0  0  0  0  0  0  0  0  0  0  0
    4.1075   -2.1954    1.3778 H   0  0  0  0  0  0  0  0  0  0  0  0
    2.8379   -2.6226    2.5621 H   0  0  0  0  0  0  0  0  0  0  0  0
    2.8756   -4.1153    0.8116 H   0  0  0  0  0  0  0  0  0  0  0  0
    1.9672   -5.7061   -0.7928 H   0  0  0  0  0  0  0  0  0  0  0  0
    0.3199   -4.9714   -2.4863 H   0  0  0  0  0  0  0  0  0  0  0  0
   -0.3725   -2.6087   -2.5590 H   0  0  0  0  0  0  0  0  0  0  0  0
   -0.1111   -0.4476   -1.9651 H   0  0  0  0  0  0  0  0  0  0  0  0
   -0.2563   -0.7130    1.0758 H   0  0  0  0  0  0  0  0  0  0  0  0
   -2.1209    0.5655   -1.9518 H   0  0  0  0  0  0  0  0  0  0  0  0
   -4.4112   -0.1355   -2.4765 H   0  0  0  0  0  0  0  0  0  0  0  0
   -5.5920   -1.6962   -0.9646 H   0  0  0  0  0  0  0  0  0  0  0  0
   -4.4819   -2.5637    1.0226 H   0  0  0  0  0  0  0  0  0  0  0  0
   -2.8406   -3.7621    2.1639 H   0  0  0  0  0  0  0  0  0  0  0  0
   -3.4767   -2.3874    3.1166 H   0  0  0  0  0  0  0  0  0  0  0  0
   -1.8454   -3.0208    3.4401 H   0  0  0  0  0  0  0  0  0  0  0  0
   -3.6204    3.1592   -1.0012 H   0  0  0  0  0  0  0  0  0  0  0  0
   -6.4334    2.4468   -0.5314 H   0  0  0  0  0  0  0  0  0  0  0  0
   -6.8342    2.7343    1.1681 H   0  0  0  0  0  0  0  0  0  0  0  0
   -6.1179    4.0232    0.1889 H   0  0  0  0  0  0  0  0  0  0  0  0
   -5.1034    1.6130    2.7402 H   0  0  0  0  0  0  0  0  0  0  0  0
    1.5485    0.7872    1.1613 H   0  0  0  0  0  0  0  0  0  0  0  0
    0.7624    3.3458   -1.1425 H   0  0  0  0  0  0  0  0  0  0  0  0
    4.1356    0.6817    0.3955 H   0  0  0  0  0  0  0  0  0  0  0  0
    6.8814    1.3765    0.8510 H   0  0  0  0  0  0  0  0  0  0  0  0
    5.9375    2.7722    1.3751 H   0  0  0  0  0  0  0  0  0  0  0  0
    7.2596    2.9860    0.2161 H   0  0  0  0  0  0  0  0  0  0  0  0
    6.2740    3.4158   -2.1565 H   0  0  0  0  0  0  0  0  0  0  0  0
  1  2  1  0  0  0  0
  2  3  1  0  0  0  0
  1  4  4  0  0  0  0
  4  5  4  0  0  0  0
  5  6  4  0  0  0  0
  6  7  4  0  0  0  0
  1  8  4  0  0  0  0
  7  8  4  0  0  0  0
  8  9  1  0  0  0  0
  9 10  1  0  0  0  0
 10 11  1  0  0  0  0
 11 12  4  0  0  0  0
 12 13  4  0  0  0  0
 13 14  4  0  0  0  0
 14 15  4  0  0  0  0
 11 16  4  0  0  0  0
 15 16  4  0  0  0  0
 16 17  1  0  0  0  0
 17 18  1  0  0  0  0
 10 19  1  0  0  0  0
 19 20  1  0  0  0  0
 20 21  1  0  0  0  0
 21 22  2  0  0  0  0
 22 23  4  0  0  0  0
 23 24  1  0  0  0  0
 23 25  2  0  0  0  0
 21 26  1  0  0  0  0
 25 26  1  0  0  0  0
 20 27  2  0  0  0  0
 19 28  1  0  0  0  0
 28 29  1  0  0  0  0
 29 30  4  0  0  0  0
 29 31  2  0  0  0  0
  9 32  1  0  0  0  0
 28 32  1  0  0  0  0
 32 33  1  0  0  0  0
 33 34  1  0  0  0  0
 34 35  2  0  0  0  0
 35 36  4  0  0  0  0
 36 37  1  0  0  0  0
 36 38  2  0  0  0  0
 34 39  1  0  0  0  0
 38 39  1  0  0  0  0
 33 40  2  0  0  0  0
  3 41  1  0  0  0  0
  3 42  1  0  0  0  0
  3 43  1  0  0  0  0
  4 44  1  0  0  0  0
  5 45  1  0  0  0  0
  6 46  1  0  0  0  0
  7 47  1  0  0  0  0
  9 48  1  0  0  0  0
 10 49  1  0  0  0  0
 12 50  1  0  0  0  0
 13 51  1  0  0  0  0
 14 52  1  0  0  0  0
 15 53  1  0  0  0  0
 18 54  1  0  0  0  0
 18 55  1  0  0  0  0
 18 56  1  0  0  0  0
 22 57  1  0  0  0  0
 24 58  1  0  0  0  0
 24 59  1  0  0  0  0
 24 60  1  0  0  0  0
 25 61  1  0  0  0  0
 28 62  1  0  0  0  0
 30 63  1  0  0  0  0
 35 64  1  0  0  0  0
 37 65  1  0  0  0  0
 37 66  1  0  0  0  0
 37 67  1  0  0  0  0
 38 68  1  0  0  0  0
M  END
