80

C     -1.892375   -3.650157   -0.323696
O     -2.031364   -2.667829   -1.270336
C     -3.236084   -2.689872   -2.032791
C     -2.636714   -4.839553   -0.326571
C     -2.444061   -5.811401    0.657767
C     -1.503702   -5.606429    1.655788
C     -0.752027   -4.433643    1.660924
C     -0.924325   -3.440423    0.673832
C     -0.038056   -2.210038    0.752511
C      0.874102   -1.971129   -0.486918
C      2.237387   -2.609853   -0.258136
C      3.212747   -2.000362    0.550737
C      4.435389   -2.629620    0.794324
C      4.694067   -3.887990    0.258777
C      3.741328   -4.509106   -0.544143
C      2.531847   -3.864129   -0.811134
O      1.594256   -4.498119   -1.583925
C      1.951346   -4.422022   -2.965638
N      0.893088   -0.508037   -0.601307
C      1.670569    0.149340   -1.539202
C      1.810428    1.620116   -1.412195
C      1.689992    2.414386   -2.555953
C      1.884406    3.794114   -2.465499
C      2.202227    4.392091   -1.235571
C      2.473131    5.875478   -1.154819
C      3.881269    6.214529   -1.624105
C      2.313499    3.588893   -0.093321
C      2.131373    2.205730   -0.181641
O      2.273854   -0.413487   -2.446401
C     -0.336774    0.041090   -0.032124
C     -1.493664    0.261797   -1.062449
O     -1.096313    0.329237   -2.351381
O     -2.675143    0.441338   -0.806503
N     -0.743001   -0.939584    0.964602
C     -1.399001   -0.677587    2.151934
C     -1.969538    0.664699    2.369088
C     -1.150676    1.720757    2.778108
C     -1.707896    2.985553    2.977211
C     -3.085619    3.188439    2.802890
C     -3.692109    4.555496    3.016659
C     -4.071649    5.226713    1.702662
C     -3.897358    2.110056    2.421845
C     -3.343813    0.845988    2.212654
O     -1.538084   -1.496759    3.054237
H     -3.275278   -1.774157   -2.629523
H     -4.118462   -2.708774   -1.385187
H     -3.240360   -3.530084   -2.732363
H     -3.375019   -5.049594   -1.094258
H     -3.029329   -6.726569    0.641841
H     -1.352251   -6.350378    2.433110
H     -0.026726   -4.290496    2.456951
H      0.597252   -2.309399    1.646470
H      0.435503   -2.332063   -1.424388
H      3.026145   -1.027850    0.997027
H      5.184199   -2.143075    1.417455
H      5.639183   -4.385429    0.466066
H      3.932832   -5.494168   -0.957504
H      1.034707   -4.265479   -3.544307
H      2.640620   -3.595165   -3.193138
H      2.397378   -5.373573   -3.274353
H      1.467690    1.955635   -3.517281
H      1.807828    4.398503   -3.366198
H      1.733824    6.413702   -1.759963
H      2.340782    6.222167   -0.122073
H      4.638923    5.667774   -1.050838
H      4.011679    5.961188   -2.683888
H      4.073826    7.286590   -1.507697
H      2.576321    4.034233    0.864029
H      2.272581    1.588487    0.702675
H     -0.130243    1.008623    0.422226
H     -1.928793    0.478296   -2.843326
H     -0.088887    1.560876    2.947508
H     -1.066169    3.810214    3.278783
H     -4.577747    4.459483    3.656275
H     -2.984736    5.199988    3.556424
H     -3.196063    5.340557    1.051358
H     -4.821025    4.642614    1.155961
H     -4.489651    6.221210    1.890867
H     -4.972053    2.243076    2.297792
H     -3.975441    0.014327    1.912674
