76

C     -1.875425   -1.092831   -1.231648
O     -1.285170   -0.218797   -2.102511
C     -0.802950   -0.792050   -3.312769
C     -2.679643   -2.153678   -1.663019
C     -3.278033   -3.008608   -0.735627
C     -3.077645   -2.808466    0.623978
C     -2.285221   -1.746285    1.060967
C     -1.683252   -0.863193    0.142179
C     -0.801128    0.246175    0.686587
C      0.701426    0.004066    0.387389
C      1.353527   -0.942734    1.383643
C      1.448500   -0.605507    2.747565
C      2.016190   -1.480115    3.673529
C      2.485417   -2.716667    3.258823
C      2.376598   -3.086818    1.918294
C      1.816032   -2.210956    0.977394
O      1.640351   -2.529735   -0.346674
C      2.361967   -3.646360   -0.844668
N      1.269721    1.352453    0.221053
C      2.261021    1.852494    1.040005
C      3.683118    1.784735    0.562768
C      4.144448    1.025029   -0.528056
O      3.280649    0.162224   -1.144389
C      3.497079   -0.065005   -2.531811
C      5.492588    1.114570   -0.913342
C      6.376368    1.956889   -0.240573
C      5.930680    2.704986    0.841256
C      4.598728    2.613287    1.244068
O      1.980134    2.471327    2.067879
C      0.194678    2.282918   -0.090832
C      0.369150    2.745053   -1.570008
O     -0.672787    2.434836   -2.384834
O      1.369555    3.297343   -2.012691
N     -1.062098    1.592971    0.158102
C     -2.167295    2.380230    0.450462
C     -3.390305    1.724279    0.940814
C     -3.548408    1.559302    2.321442
C     -4.691968    0.927800    2.805782
C     -5.665242    0.477462    1.911844
C     -5.509840    0.666483    0.531054
C     -4.370824    1.302610    0.030491
O     -4.149659    1.597009   -1.285575
C     -4.977323    0.964833   -2.251904
O     -2.173814    3.597493    0.304888
H     -1.615687   -0.896957   -4.042259
H     -0.062749   -0.102665   -3.732023
H     -0.305867   -1.752840   -3.132374
H     -2.868192   -2.325444   -2.717683
H     -3.898205   -3.833787   -1.079352
H     -3.535568   -3.477523    1.350464
H     -2.136585   -1.617150    2.132743
H     -0.956464    0.334752    1.771469
H      0.792015   -0.410358   -0.622099
H      1.083620    0.357422    3.106272
H      2.088576   -1.186755    4.718208
H      2.928289   -3.400895    3.977872
H      2.732138   -4.073594    1.638564
H      3.432697   -3.545648   -0.640452
H      1.967452   -4.581508   -0.438409
H      2.228095   -3.676427   -1.930491
H      2.581806   -0.502842   -2.945847
H      4.307116   -0.787088   -2.678048
H      3.693159    0.864970   -3.076883
H      5.886038    0.523505   -1.732657
H      7.409499    2.023806   -0.563846
H      6.608679    3.373150    1.365880
H      4.269122    3.221683    2.081900
H      0.251442    3.191904    0.521260
H     -1.348871    1.917046   -1.888056
H     -2.790724    1.926264    3.010984
H     -4.826544    0.798919    3.876933
H     -6.564120   -0.002714    2.290376
H     -6.308217    0.330661   -0.122068
H     -6.005172    1.338635   -2.191712
H     -4.941540   -0.126718   -2.165585
H     -4.595129    1.227147   -3.244407
