66

C      4.318756   -2.439418    0.666212
C      4.435203   -1.692201    1.834501
C      3.585715   -0.618277    2.044699
C      2.621912   -0.293201    1.085850
C      2.467960   -1.029361   -0.113395
C      3.352192   -2.125505   -0.303749
C      3.267355   -2.909221   -1.461187
C      2.321564   -2.635363   -2.440142
C      1.443968   -1.571976   -2.271421
C      1.492723   -0.753887   -1.122359
C      0.439689    0.348848   -1.043881
C     -0.579214    0.105510    0.101192
C     -1.813957   -0.662015   -0.358695
C     -2.801980    0.012748   -1.102393
C     -3.965696   -0.629914   -1.506452
C     -4.166182   -1.964274   -1.179237
C     -3.200129   -2.681756   -0.463636
C     -1.996663   -2.048677   -0.053197
C     -1.058832   -2.853399    0.641954
C     -1.305062   -4.197723    0.934435
C     -2.495746   -4.786003    0.538835
C     -3.434750   -4.032454   -0.158927
N     -0.848108    1.450338    0.636156
C     -1.545891    1.779556    1.781115
C     -2.222284    0.708479    2.488483
C     -1.619792   -0.104383    3.423568
Cl     0.014229   -0.052836    3.963523
S     -2.653926   -1.285376    4.068663
C     -3.943454   -0.706796    3.139250
Cl    -5.478662   -1.466448    3.239273
C     -3.613344    0.371673    2.358685
O     -1.617251    2.937669    2.179960
C      0.039526    2.449108    0.055652
C     -0.827250    3.440652   -0.766467
O     -0.653931    4.726818   -0.393731
O     -1.577187    3.167025   -1.691760
N      0.949741    1.700732   -0.806788
C      1.868523    2.279526   -1.668115
C      2.292026    3.650137   -1.413197
C      2.962318    4.106243   -0.297810
Cl     3.492807    3.212851    1.073142
S      3.309419    5.769523   -0.340818
C      2.638662    5.903926   -1.885841
Cl     2.628872    7.420880   -2.687123
C      2.148234    4.719301   -2.369608
O      2.268460    1.706887   -2.676706
H      4.996237   -3.278087    0.516641
H      5.189637   -1.947387    2.573619
H      3.670858   -0.025368    2.952084
H      1.992264    0.561365    1.305016
H      3.945581   -3.746484   -1.613194
H      2.269407   -3.248803   -3.335711
H      0.713880   -1.379503   -3.056476
H     -0.086653    0.417409   -2.006342
H     -0.115495   -0.415266    0.938576
H     -2.683119    1.058831   -1.370062
H     -4.719034   -0.088519   -2.073225
H     -5.088370   -2.446632   -1.497879
H     -0.100324   -2.461628    0.969975
H     -0.559499   -4.780957    1.469420
H     -2.692796   -5.830299    0.765203
H     -4.360191   -4.514730   -0.467999
H     -4.310724    0.877381    1.702087
H      0.586589    2.977634    0.840246
H     -1.286408    5.238558   -0.941582
H      1.697595    4.604523   -3.348914
