
  xtb     03172202193D
 xtb: 6.3.3 (4ae9cef)
 22 22  0     0  0            999 V2000
    3.9133   -0.7560   -0.1282 C   0  0  0  0  0  0  0  0  0  0  0  0
    3.0192    0.2033    0.0172 C   0  0  0  0  0  0  0  0  0  0  0  0
    1.5805   -0.0208    0.3530 C   0  0  0  0  0  0  0  0  0  0  0  0
    0.6676    0.4839   -0.7784 C   0  0  0  0  0  0  0  0  0  0  0  0
   -0.7760    0.2708   -0.4275 C   0  0  0  0  0  0  0  0  0  0  0  0
   -1.4167   -0.9167   -0.7575 C   0  0  0  0  0  0  0  0  0  0  0  0
   -2.7382   -1.1276   -0.4067 C   0  0  0  0  0  0  0  0  0  0  0  0
   -3.4375   -0.1523    0.2834 C   0  0  0  0  0  0  0  0  0  0  0  0
   -2.8072    1.0328    0.6216 C   0  0  0  0  0  0  0  0  0  0  0  0
   -1.4855    1.2405    0.2695 C   0  0  0  0  0  0  0  0  0  0  0  0
    3.6562   -1.7942    0.0062 H   0  0  0  0  0  0  0  0  0  0  0  0
    4.9395   -0.5490   -0.3807 H   0  0  0  0  0  0  0  0  0  0  0  0
    3.3030    1.2383   -0.1270 H   0  0  0  0  0  0  0  0  0  0  0  0
    1.3307    0.5196    1.2708 H   0  0  0  0  0  0  0  0  0  0  0  0
    1.3945   -1.0829    0.5233 H   0  0  0  0  0  0  0  0  0  0  0  0
    0.8590    1.5466   -0.9434 H   0  0  0  0  0  0  0  0  0  0  0  0
    0.9144   -0.0548   -1.6958 H   0  0  0  0  0  0  0  0  0  0  0  0
   -0.8753   -1.6799   -1.2988 H   0  0  0  0  0  0  0  0  0  0  0  0
   -3.2248   -2.0545   -0.6742 H   0  0  0  0  0  0  0  0  0  0  0  0
   -4.4702   -0.3146    0.5551 H   0  0  0  0  0  0  0  0  0  0  0  0
   -3.3476    1.7983    1.1595 H   0  0  0  0  0  0  0  0  0  0  0  0
   -0.9989    2.1692    0.5337 H   0  0  0  0  0  0  0  0  0  0  0  0
  1  2  2  0  0  0  0
  2  3  1  0  0  0  0
  3  4  1  0  0  0  0
  4  5  1  0  0  0  0
  5  6  4  0  0  0  0
  6  7  4  0  0  0  0
  7  8  4  0  0  0  0
  8  9  4  0  0  0  0
  5 10  4  0  0  0  0
  9 10  4  0  0  0  0
  1 11  1  0  0  0  0
  1 12  1  0  0  0  0
  2 13  1  0  0  0  0
  3 14  1  0  0  0  0
  3 15  1  0  0  0  0
  4 16  1  0  0  0  0
  4 17  1  0  0  0  0
  6 18  1  0  0  0  0
  7 19  1  0  0  0  0
  8 20  1  0  0  0  0
  9 21  1  0  0  0  0
 10 22  1  0  0  0  0
M  END
