
  xtb     03162221363D
 xtb: 6.3.3 (4ae9cef)
 54 58  0     0  0            999 V2000
    1.3106    2.1930   -1.9795 C   0  0  0  0  0  0  0  0  0  0  0  0
    1.5838    2.8162   -3.1873 C   0  0  0  0  0  0  0  0  0  0  0  0
    0.5891    3.5004   -3.8602 C   0  0  0  0  0  0  0  0  0  0  0  0
   -0.6801    3.5795   -3.3100 C   0  0  0  0  0  0  0  0  0  0  0  0
   -0.9538    2.9621   -2.1045 C   0  0  0  0  0  0  0  0  0  0  0  0
    0.0351    2.2479   -1.4344 C   0  0  0  0  0  0  0  0  0  0  0  0
   -0.3299    1.5789   -0.1233 C   0  0  0  0  0  0  0  0  0  0  0  0
   -1.5001    0.5954   -0.2832 C   0  0  0  0  0  0  0  0  0  0  0  0
   -2.4678    0.5545    0.8757 C   0  0  0  0  0  0  0  0  0  0  0  0
   -3.8271    0.4355    0.6172 C   0  0  0  0  0  0  0  0  0  0  0  0
   -4.7314    0.3420    1.6598 C   0  0  0  0  0  0  0  0  0  0  0  0
   -4.2843    0.3609    2.9697 C   0  0  0  0  0  0  0  0  0  0  0  0
   -2.9301    0.4735    3.2333 C   0  0  0  0  0  0  0  0  0  0  0  0
   -2.0238    0.5685    2.1923 C   0  0  0  0  0  0  0  0  0  0  0  0
   -0.8173   -0.6914   -0.4023 N   0  0  0  0  0  0  0  0  0  0  0  0
   -1.3647   -1.7261   -1.0882 C   0  0  0  0  0  0  0  0  0  0  0  0
   -0.6126   -3.0065   -0.9488 C   0  0  0  0  0  0  0  0  0  0  0  0
   -0.4076   -3.7997    0.1534 C   0  0  0  0  0  0  0  0  0  0  0  0
   -0.9762   -3.4383    1.9010 Br  0  0  0  0  0  0  0  0  0  0  0  0
    0.2906   -4.9474   -0.2878 C   0  0  0  0  0  0  0  0  0  0  0  0
    0.4546   -4.7667   -1.6265 C   0  0  0  0  0  0  0  0  0  0  0  0
   -0.0954   -3.6156   -2.0302 O   0  0  0  0  0  0  0  0  0  0  0  0
   -2.3783   -1.6160   -1.7398 O   0  0  0  0  0  0  0  0  0  0  0  0
    0.4693   -0.6718    0.2490 C   0  0  0  0  0  0  0  0  0  0  0  0
    1.5463   -1.3325   -0.6575 C   0  0  0  0  0  0  0  0  0  0  0  0
    1.5885   -0.8656   -1.8985 O   0  0  0  0  0  0  0  0  0  0  0  0
    2.2895   -2.1833   -0.2640 O   0  0  0  0  0  0  0  0  0  0  0  0
    0.7304    0.7421    0.4270 N   0  0  0  0  0  0  0  0  0  0  0  0
    1.7627    1.3141    1.1100 C   0  0  0  0  0  0  0  0  0  0  0  0
    2.7678    0.4048    1.6886 C   0  0  0  0  0  0  0  0  0  0  0  0
    4.1167    0.6330    1.8452 C   0  0  0  0  0  0  0  0  0  0  0  0
    5.0619    2.1390    1.2833 Br  0  0  0  0  0  0  0  0  0  0  0  0
    4.6575   -0.5144    2.4712 C   0  0  0  0  0  0  0  0  0  0  0  0
    3.5995   -1.3477    2.6662 C   0  0  0  0  0  0  0  0  0  0  0  0
    2.4667   -0.8084    2.2029 O   0  0  0  0  0  0  0  0  0  0  0  0
    1.8690    2.5202    1.1971 O   0  0  0  0  0  0  0  0  0  0  0  0
    2.1173    1.7031   -1.4551 H   0  0  0  0  0  0  0  0  0  0  0  0
    2.5822    2.7665   -3.5940 H   0  0  0  0  0  0  0  0  0  0  0  0
    0.8030    3.9828   -4.8016 H   0  0  0  0  0  0  0  0  0  0  0  0
   -1.4582    4.1287   -3.8181 H   0  0  0  0  0  0  0  0  0  0  0  0
   -1.9397    3.0439   -1.6704 H   0  0  0  0  0  0  0  0  0  0  0  0
   -0.5609    2.3636    0.6071 H   0  0  0  0  0  0  0  0  0  0  0  0
   -2.0548    0.7616   -1.2117 H   0  0  0  0  0  0  0  0  0  0  0  0
   -4.1736    0.4033   -0.4050 H   0  0  0  0  0  0  0  0  0  0  0  0
   -5.7859    0.2497    1.4474 H   0  0  0  0  0  0  0  0  0  0  0  0
   -4.9889    0.2846    3.7840 H   0  0  0  0  0  0  0  0  0  0  0  0
   -2.5752    0.4835    4.2526 H   0  0  0  0  0  0  0  0  0  0  0  0
   -0.9711    0.6562    2.4163 H   0  0  0  0  0  0  0  0  0  0  0  0
    0.6166   -5.7677    0.3161 H   0  0  0  0  0  0  0  0  0  0  0  0
    0.9376   -5.3665   -2.3715 H   0  0  0  0  0  0  0  0  0  0  0  0
    0.4616   -1.1950    1.2172 H   0  0  0  0  0  0  0  0  0  0  0  0
    0.9694   -0.1334   -2.0703 H   0  0  0  0  0  0  0  0  0  0  0  0
    5.6829   -0.6745    2.7300 H   0  0  0  0  0  0  0  0  0  0  0  0
    3.5283   -2.3205    3.1100 H   0  0  0  0  0  0  0  0  0  0  0  0
  1  2  4  0  0  0  0
  2  3  4  0  0  0  0
  3  4  4  0  0  0  0
  4  5  4  0  0  0  0
  1  6  4  0  0  0  0
  5  6  4  0  0  0  0
  6  7  1  0  0  0  0
  7  8  1  0  0  0  0
  8  9  1  0  0  0  0
  9 10  4  0  0  0  0
 10 11  4  0  0  0  0
 11 12  4  0  0  0  0
 12 13  4  0  0  0  0
  9 14  4  0  0  0  0
 13 14  4  0  0  0  0
  8 15  1  0  0  0  0
 15 16  4  0  0  0  0
 16 17  1  0  0  0  0
 17 18  4  0  0  0  0
 18 19  1  0  0  0  0
 18 20  4  0  0  0  0
 20 21  2  0  0  0  0
 17 22  1  0  0  0  0
 21 22  1  0  0  0  0
 16 23  2  0  0  0  0
 15 24  1  0  0  0  0
 24 25  1  0  0  0  0
 25 26  1  0  0  0  0
 25 27  2  0  0  0  0
  7 28  1  0  0  0  0
 24 28  1  0  0  0  0
 28 29  1  0  0  0  0
 29 30  1  0  0  0  0
 30 31  4  0  0  0  0
 31 32  1  0  0  0  0
 31 33  4  0  0  0  0
 33 34  2  0  0  0  0
 30 35  1  0  0  0  0
 34 35  1  0  0  0  0
 29 36  2  0  0  0  0
  1 37  1  0  0  0  0
  2 38  1  0  0  0  0
  3 39  1  0  0  0  0
  4 40  1  0  0  0  0
  5 41  1  0  0  0  0
  7 42  1  0  0  0  0
  8 43  1  0  0  0  0
 10 44  1  0  0  0  0
 11 45  1  0  0  0  0
 12 46  1  0  0  0  0
 13 47  1  0  0  0  0
 14 48  1  0  0  0  0
 20 49  1  0  0  0  0
 21 50  1  0  0  0  0
 24 51  1  0  0  0  0
 26 52  1  0  0  0  0
 33 53  1  0  0  0  0
 34 54  1  0  0  0  0
M  END
