72

C      1.857636   -3.427689   -0.410273
C      1.132746   -3.958910   -1.630414
F      1.267634   -3.171470   -2.730578
F     -0.209179   -4.062659   -1.414042
F      1.535325   -5.204642   -2.012859
C      2.883392   -4.210946    0.156329
C      3.575225   -3.787025    1.289908
C      3.254018   -2.573428    1.882380
C      2.246575   -1.779744    1.335878
C      1.535269   -2.182023    0.185558
C      0.469815   -1.256015   -0.398598
C     -0.713679   -1.003735    0.591155
C     -1.909067   -1.926240    0.358895
C     -2.326993   -2.877396    1.327071
C     -1.600339   -3.082845    2.641419
F     -0.306613   -3.465469    2.446488
F     -2.149068   -4.052054    3.429413
F     -1.540889   -1.969647    3.419188
C     -3.446439   -3.691489    1.053164
C     -4.142126   -3.583733   -0.147871
C     -3.733168   -2.659461   -1.098176
C     -2.630251   -1.842955   -0.848707
N     -1.023420    0.425131    0.433234
C     -1.910048    1.064435    1.280635
C     -2.116247    2.488480    1.083246
C     -3.234501    3.030901    0.472514
C     -4.462132    2.450563   -0.114190
O     -3.137889    4.387811    0.428108
C     -1.993108    4.726270    1.066898
C     -1.330402    3.603704    1.523472
C     -0.080672    3.589504    2.319541
O     -2.523829    0.467731    2.160115
C     -0.085501    1.075827   -0.475101
C     -0.738881    1.449367   -1.847482
O     -2.074725    1.283268   -1.921406
O     -0.149499    1.874433   -2.830609
N      0.976073    0.093731   -0.659372
C      2.102775    0.326816   -1.431066
C      2.672068    1.663550   -1.360358
C      2.964267    2.461425   -2.452429
C      2.812887    2.294671   -3.913944
O      3.487464    3.649896   -2.043764
C      3.590691    3.599512   -0.695331
C      3.135932    2.391515   -0.211483
C      3.189365    1.928148    1.194826
O      2.633274   -0.555129   -2.099508
H      3.153745   -5.166654   -0.293197
H      4.365286   -4.406683    1.706608
H      3.792330   -2.238824    2.764975
H      2.024199   -0.830261    1.815854
H      0.106915   -1.621784   -1.363584
H     -0.369899   -1.092021    1.625758
H     -3.782917   -4.426681    1.783562
H     -5.001439   -4.221993   -0.339338
H     -4.273312   -2.572450   -2.037379
H     -2.341419   -1.134838   -1.617405
H     -5.336225    2.740920    0.476205
H     -4.602294    2.808844   -1.139164
H     -4.417439    1.357073   -0.140238
H     -1.797865    5.787781    1.137244
H      0.775514    3.817838    1.679192
H     -0.116576    4.337874    3.116829
H      0.086638    2.611185    2.783472
H      0.307731    1.993049   -0.036060
H     -2.306183    1.608776   -2.818286
H      3.784588    2.392148   -4.408521
H      2.401243    1.313714   -4.166653
H      2.141091    3.058414   -4.317634
H      4.031206    4.473005   -0.233122
H      2.183950    1.738798    1.582891
H      3.670063    2.671474    1.841029
H      3.767298    0.999318    1.265082
