
  xtb     03172201263D
 xtb: 6.3.3 (4ae9cef)
 72 76  0     0  0            999 V2000
    1.5750   -3.4735   -0.5839 C   0  0  0  0  0  0  0  0  0  0  0  0
    0.6113   -3.8745   -1.6650 C   0  0  0  0  0  0  0  0  0  0  0  0
    0.6142   -3.0565   -2.7332 F   0  0  0  0  0  0  0  0  0  0  0  0
   -0.6709   -3.8918   -1.2289 F   0  0  0  0  0  0  0  0  0  0  0  0
    0.8414   -5.1017   -2.1469 F   0  0  0  0  0  0  0  0  0  0  0  0
    2.5433   -4.3892   -0.1893 C   0  0  0  0  0  0  0  0  0  0  0  0
    3.4362   -4.0710    0.8150 C   0  0  0  0  0  0  0  0  0  0  0  0
    3.3601   -2.8360    1.4344 C   0  0  0  0  0  0  0  0  0  0  0  0
    2.3953   -1.9284    1.0459 C   0  0  0  0  0  0  0  0  0  0  0  0
    1.4932   -2.2240    0.0302 C   0  0  0  0  0  0  0  0  0  0  0  0
    0.4577   -1.1947   -0.3351 C   0  0  0  0  0  0  0  0  0  0  0  0
   -0.5761   -0.9640    0.7919 C   0  0  0  0  0  0  0  0  0  0  0  0
   -1.7954   -1.8362    0.6449 C   0  0  0  0  0  0  0  0  0  0  0  0
   -2.1000   -2.8692    1.5318 C   0  0  0  0  0  0  0  0  0  0  0  0
   -1.2075   -3.1844    2.6989 C   0  0  0  0  0  0  0  0  0  0  0  0
    0.0408   -3.5390    2.3089 F   0  0  0  0  0  0  0  0  0  0  0  0
   -1.6522   -4.2037    3.4428 F   0  0  0  0  0  0  0  0  0  0  0  0
   -1.0364   -2.1571    3.5510 F   0  0  0  0  0  0  0  0  0  0  0  0
   -3.2329   -3.6510    1.3394 C   0  0  0  0  0  0  0  0  0  0  0  0
   -4.0704   -3.4136    0.2674 C   0  0  0  0  0  0  0  0  0  0  0  0
   -3.7715   -2.3982   -0.6236 C   0  0  0  0  0  0  0  0  0  0  0  0
   -2.6435   -1.6245   -0.4363 C   0  0  0  0  0  0  0  0  0  0  0  0
   -0.8918    0.4537    0.6469 N   0  0  0  0  0  0  0  0  0  0  0  0
   -2.0343    1.0177    1.1266 C   0  0  0  0  0  0  0  0  0  0  0  0
   -2.2070    2.4398    0.7404 C   0  0  0  0  0  0  0  0  0  0  0  0
   -3.1802    2.8972   -0.1109 C   0  0  0  0  0  0  0  0  0  0  0  0
   -4.2405    2.1669   -0.8525 C   0  0  0  0  0  0  0  0  0  0  0  0
   -3.0824    4.2310   -0.2445 O   0  0  0  0  0  0  0  0  0  0  0  0
   -2.0685    4.6429    0.5388 C   0  0  0  0  0  0  0  0  0  0  0  0
   -1.4836    3.5936    1.1796 C   0  0  0  0  0  0  0  0  0  0  0  0
   -0.3644    3.6452    2.1630 C   0  0  0  0  0  0  0  0  0  0  0  0
   -2.8465    0.3900    1.7708 O   0  0  0  0  0  0  0  0  0  0  0  0
    0.0989    1.1509   -0.1338 C   0  0  0  0  0  0  0  0  0  0  0  0
   -0.4904    1.7685   -1.4192 C   0  0  0  0  0  0  0  0  0  0  0  0
   -1.2534    0.9036   -2.0835 O   0  0  0  0  0  0  0  0  0  0  0  0
   -0.2373    2.8721   -1.8128 O   0  0  0  0  0  0  0  0  0  0  0  0
    1.0574    0.1268   -0.4726 N   0  0  0  0  0  0  0  0  0  0  0  0
    2.2208    0.3366   -1.1624 C   0  0  0  0  0  0  0  0  0  0  0  0
    2.6899    1.7391   -1.1378 C   0  0  0  0  0  0  0  0  0  0  0  0
    2.8386    2.5736   -2.2132 C   0  0  0  0  0  0  0  0  0  0  0  0
    2.5161    2.3711   -3.6474 C   0  0  0  0  0  0  0  0  0  0  0  0
    3.3184    3.7612   -1.8091 O   0  0  0  0  0  0  0  0  0  0  0  0
    3.5053    3.6924   -0.4776 C   0  0  0  0  0  0  0  0  0  0  0  0
    3.1402    2.4744    0.0069 C   0  0  0  0  0  0  0  0  0  0  0  0
    3.2729    1.9775    1.4050 C   0  0  0  0  0  0  0  0  0  0  0  0
    2.8167   -0.5705   -1.7005 O   0  0  0  0  0  0  0  0  0  0  0  0
    2.5950   -5.3517   -0.6738 H   0  0  0  0  0  0  0  0  0  0  0  0
    4.1866   -4.7866    1.1120 H   0  0  0  0  0  0  0  0  0  0  0  0
    4.0517   -2.5803    2.2225 H   0  0  0  0  0  0  0  0  0  0  0  0
    2.3420   -0.9653    1.5299 H   0  0  0  0  0  0  0  0  0  0  0  0
   -0.0658   -1.4562   -1.2607 H   0  0  0  0  0  0  0  0  0  0  0  0
   -0.0943   -1.1153    1.7635 H   0  0  0  0  0  0  0  0  0  0  0  0
   -3.4565   -4.4449    2.0346 H   0  0  0  0  0  0  0  0  0  0  0  0
   -4.9505   -4.0218    0.1293 H   0  0  0  0  0  0  0  0  0  0  0  0
   -4.4178   -2.2094   -1.4674 H   0  0  0  0  0  0  0  0  0  0  0  0
   -2.4150   -0.8331   -1.1329 H   0  0  0  0  0  0  0  0  0  0  0  0
   -5.2137    2.5981   -0.6239 H   0  0  0  0  0  0  0  0  0  0  0  0
   -4.0874    2.2437   -1.9291 H   0  0  0  0  0  0  0  0  0  0  0  0
   -4.2369    1.1226   -0.5537 H   0  0  0  0  0  0  0  0  0  0  0  0
   -1.8587    5.6931    0.5602 H   0  0  0  0  0  0  0  0  0  0  0  0
    0.5774    3.8834    1.6670 H   0  0  0  0  0  0  0  0  0  0  0  0
   -0.5534    4.4227    2.9004 H   0  0  0  0  0  0  0  0  0  0  0  0
   -0.2699    2.6943    2.6821 H   0  0  0  0  0  0  0  0  0  0  0  0
    0.5734    1.9703    0.4206 H   0  0  0  0  0  0  0  0  0  0  0  0
   -1.5684    1.2842   -2.9200 H   0  0  0  0  0  0  0  0  0  0  0  0
    3.2827    2.8291   -4.2681 H   0  0  0  0  0  0  0  0  0  0  0  0
    2.4605    1.3074   -3.8616 H   0  0  0  0  0  0  0  0  0  0  0  0
    1.5606    2.8400   -3.8845 H   0  0  0  0  0  0  0  0  0  0  0  0
    3.9069    4.5587    0.0090 H   0  0  0  0  0  0  0  0  0  0  0  0
    2.3266    1.6051    1.7949 H   0  0  0  0  0  0  0  0  0  0  0  0
    3.6243    2.7778    2.0512 H   0  0  0  0  0  0  0  0  0  0  0  0
    3.9938    1.1610    1.4379 H   0  0  0  0  0  0  0  0  0  0  0  0
  1  2  1  0  0  0  0
  2  3  1  0  0  0  0
  2  4  1  0  0  0  0
  2  5  1  0  0  0  0
  1  6  4  0  0  0  0
  6  7  4  0  0  0  0
  7  8  4  0  0  0  0
  8  9  4  0  0  0  0
  1 10  4  0  0  0  0
  9 10  4  0  0  0  0
 10 11  1  0  0  0  0
 11 12  1  0  0  0  0
 12 13  1  0  0  0  0
 13 14  4  0  0  0  0
 14 15  1  0  0  0  0
 15 16  1  0  0  0  0
 15 17  1  0  0  0  0
 15 18  1  0  0  0  0
 14 19  4  0  0  0  0
 19 20  4  0  0  0  0
 20 21  4  0  0  0  0
 13 22  4  0  0  0  0
 21 22  4  0  0  0  0
 12 23  1  0  0  0  0
 23 24  1  0  0  0  0
 24 25  1  0  0  0  0
 25 26  2  0  0  0  0
 26 27  1  0  0  0  0
 26 28  1  0  0  0  0
 28 29  1  0  0  0  0
 25 30  4  0  0  0  0
 29 30  2  0  0  0  0
 30 31  1  0  0  0  0
 24 32  2  0  0  0  0
 23 33  1  0  0  0  0
 33 34  1  0  0  0  0
 34 35  1  0  0  0  0
 34 36  2  0  0  0  0
 11 37  1  0  0  0  0
 33 37  1  0  0  0  0
 37 38  1  0  0  0  0
 38 39  1  0  0  0  0
 39 40  2  0  0  0  0
 40 41  1  0  0  0  0
 40 42  1  0  0  0  0
 42 43  1  0  0  0  0
 39 44  4  0  0  0  0
 43 44  2  0  0  0  0
 44 45  1  0  0  0  0
 38 46  2  0  0  0  0
  6 47  1  0  0  0  0
  7 48  1  0  0  0  0
  8 49  1  0  0  0  0
  9 50  1  0  0  0  0
 11 51  1  0  0  0  0
 12 52  1  0  0  0  0
 19 53  1  0  0  0  0
 20 54  1  0  0  0  0
 21 55  1  0  0  0  0
 22 56  1  0  0  0  0
 27 57  1  0  0  0  0
 27 58  1  0  0  0  0
 27 59  1  0  0  0  0
 29 60  1  0  0  0  0
 31 61  1  0  0  0  0
 31 62  1  0  0  0  0
 31 63  1  0  0  0  0
 33 64  1  0  0  0  0
 35 65  1  0  0  0  0
 41 66  1  0  0  0  0
 41 67  1  0  0  0  0
 41 68  1  0  0  0  0
 43 69  1  0  0  0  0
 45 70  1  0  0  0  0
 45 71  1  0  0  0  0
 45 72  1  0  0  0  0
M  END
