
  xtb     03162222153D
 xtb: 6.3.3 (4ae9cef)
 72 78  0     0  0            999 V2000
    2.1357    1.5880   -0.5958 C   0  0  0  0  0  0  0  0  0  0  0  0
    2.7065    2.8246   -0.6787 C   0  0  0  0  0  0  0  0  0  0  0  0
    2.7034    3.7003    0.4277 C   0  0  0  0  0  0  0  0  0  0  0  0
    3.2915    4.9807    0.3754 C   0  0  0  0  0  0  0  0  0  0  0  0
    3.2710    5.8032    1.4669 C   0  0  0  0  0  0  0  0  0  0  0  0
    2.6601    5.3839    2.6592 C   0  0  0  0  0  0  0  0  0  0  0  0
    2.0810    4.1487    2.7412 C   0  0  0  0  0  0  0  0  0  0  0  0
    2.0885    3.2752    1.6339 C   0  0  0  0  0  0  0  0  0  0  0  0
    1.5141    1.9895    1.6925 C   0  0  0  0  0  0  0  0  0  0  0  0
    1.5416    1.1568    0.6075 C   0  0  0  0  0  0  0  0  0  0  0  0
    0.9154   -0.2114    0.6667 C   0  0  0  0  0  0  0  0  0  0  0  0
   -0.3671   -0.2816   -0.1858 C   0  0  0  0  0  0  0  0  0  0  0  0
   -1.6194   -0.1916    0.6425 C   0  0  0  0  0  0  0  0  0  0  0  0
   -2.4459    0.8953    0.5421 C   0  0  0  0  0  0  0  0  0  0  0  0
   -3.6446    0.9677    1.2786 C   0  0  0  0  0  0  0  0  0  0  0  0
   -4.5369    2.0521    1.1487 C   0  0  0  0  0  0  0  0  0  0  0  0
   -5.7081    2.0777    1.8525 C   0  0  0  0  0  0  0  0  0  0  0  0
   -6.0362    1.0272    2.7241 C   0  0  0  0  0  0  0  0  0  0  0  0
   -5.1898   -0.0352    2.8752 C   0  0  0  0  0  0  0  0  0  0  0  0
   -3.9789   -0.0970    2.1554 C   0  0  0  0  0  0  0  0  0  0  0  0
   -3.0954   -1.1919    2.2624 C   0  0  0  0  0  0  0  0  0  0  0  0
   -1.9486   -1.2403    1.5241 C   0  0  0  0  0  0  0  0  0  0  0  0
   -0.2522   -1.5557   -0.8799 N   0  0  0  0  0  0  0  0  0  0  0  0
   -1.1101   -2.0422   -1.8106 C   0  0  0  0  0  0  0  0  0  0  0  0
   -2.4396   -1.3571   -1.8549 C   0  0  0  0  0  0  0  0  0  0  0  0
   -2.6063   -0.1996   -2.6029 C   0  0  0  0  0  0  0  0  0  0  0  0
   -3.8378    0.4317   -2.6251 C   0  0  0  0  0  0  0  0  0  0  0  0
   -4.9022   -0.0817   -1.9045 C   0  0  0  0  0  0  0  0  0  0  0  0
   -4.7278   -1.2497   -1.1855 C   0  0  0  0  0  0  0  0  0  0  0  0
   -6.3469   -2.0517   -0.0950 I   0  0  0  0  0  0  0  0  0  0  0  0
   -3.5111   -1.9022   -1.1608 C   0  0  0  0  0  0  0  0  0  0  0  0
   -0.8083   -2.9813   -2.5185 O   0  0  0  0  0  0  0  0  0  0  0  0
    1.0879   -2.1036   -0.8225 C   0  0  0  0  0  0  0  0  0  0  0  0
    1.6811   -2.0905   -2.2482 C   0  0  0  0  0  0  0  0  0  0  0  0
    2.0953   -3.2861   -2.6294 O   0  0  0  0  0  0  0  0  0  0  0  0
    1.7455   -1.0961   -2.9170 O   0  0  0  0  0  0  0  0  0  0  0  0
    1.7823   -1.2328    0.0882 N   0  0  0  0  0  0  0  0  0  0  0  0
    3.0975   -1.3012    0.4184 C   0  0  0  0  0  0  0  0  0  0  0  0
    3.8760   -2.3091   -0.3717 C   0  0  0  0  0  0  0  0  0  0  0  0
    3.8120   -3.6612   -0.0655 C   0  0  0  0  0  0  0  0  0  0  0  0
    4.5538   -4.5549   -0.8140 C   0  0  0  0  0  0  0  0  0  0  0  0
    4.4431   -6.6169   -0.3655 I   0  0  0  0  0  0  0  0  0  0  0  0
    5.3591   -4.1259   -1.8534 C   0  0  0  0  0  0  0  0  0  0  0  0
    5.4320   -2.7727   -2.1380 C   0  0  0  0  0  0  0  0  0  0  0  0
    4.6979   -1.8620   -1.3988 C   0  0  0  0  0  0  0  0  0  0  0  0
    3.5984   -0.5894    1.2592 O   0  0  0  0  0  0  0  0  0  0  0  0
    2.1440    0.9242   -1.4494 H   0  0  0  0  0  0  0  0  0  0  0  0
    3.1725    3.1503   -1.5977 H   0  0  0  0  0  0  0  0  0  0  0  0
    3.7618    5.2989   -0.5442 H   0  0  0  0  0  0  0  0  0  0  0  0
    3.7260    6.7818    1.4211 H   0  0  0  0  0  0  0  0  0  0  0  0
    2.6539    6.0469    3.5119 H   0  0  0  0  0  0  0  0  0  0  0  0
    1.6118    3.8200    3.6574 H   0  0  0  0  0  0  0  0  0  0  0  0
    1.0585    1.6648    2.6173 H   0  0  0  0  0  0  0  0  0  0  0  0
    0.6999   -0.4714    1.7119 H   0  0  0  0  0  0  0  0  0  0  0  0
   -0.3559    0.5369   -0.9192 H   0  0  0  0  0  0  0  0  0  0  0  0
   -2.1960    1.7083   -0.1252 H   0  0  0  0  0  0  0  0  0  0  0  0
   -4.2775    2.8572    0.4762 H   0  0  0  0  0  0  0  0  0  0  0  0
   -6.3911    2.9072    1.7431 H   0  0  0  0  0  0  0  0  0  0  0  0
   -6.9667    1.0636    3.2702 H   0  0  0  0  0  0  0  0  0  0  0  0
   -5.4423   -0.8499    3.5379 H   0  0  0  0  0  0  0  0  0  0  0  0
   -3.3513   -2.0001    2.9320 H   0  0  0  0  0  0  0  0  0  0  0  0
   -1.2869   -2.0917    1.5955 H   0  0  0  0  0  0  0  0  0  0  0  0
   -1.7755    0.2004   -3.1648 H   0  0  0  0  0  0  0  0  0  0  0  0
   -3.9725    1.3333   -3.2032 H   0  0  0  0  0  0  0  0  0  0  0  0
   -5.8573    0.4201   -1.9097 H   0  0  0  0  0  0  0  0  0  0  0  0
   -3.3835   -2.8180   -0.6048 H   0  0  0  0  0  0  0  0  0  0  0  0
    1.0599   -3.1500   -0.4784 H   0  0  0  0  0  0  0  0  0  0  0  0
    2.3658   -3.2860   -3.5621 H   0  0  0  0  0  0  0  0  0  0  0  0
    3.1963   -4.0049    0.7519 H   0  0  0  0  0  0  0  0  0  0  0  0
    5.9290   -4.8359   -2.4328 H   0  0  0  0  0  0  0  0  0  0  0  0
    6.0666   -2.4303   -2.9413 H   0  0  0  0  0  0  0  0  0  0  0  0
    4.7529   -0.8056   -1.6139 H   0  0  0  0  0  0  0  0  0  0  0  0
  1  2  2  0  0  0  0
  2  3  4  0  0  0  0
  3  4  4  0  0  0  0
  4  5  2  0  0  0  0
  5  6  4  0  0  0  0
  6  7  2  0  0  0  0
  3  8  4  0  0  0  0
  7  8  4  0  0  0  0
  8  9  4  0  0  0  0
  1 10  4  0  0  0  0
  9 10  2  0  0  0  0
 10 11  1  0  0  0  0
 11 12  1  0  0  0  0
 12 13  1  0  0  0  0
 13 14  2  0  0  0  0
 14 15  4  0  0  0  0
 15 16  4  0  0  0  0
 16 17  2  0  0  0  0
 17 18  4  0  0  0  0
 18 19  2  0  0  0  0
 15 20  4  0  0  0  0
 19 20  4  0  0  0  0
 20 21  4  0  0  0  0
 13 22  4  0  0  0  0
 21 22  2  0  0  0  0
 12 23  1  0  0  0  0
 23 24  4  0  0  0  0
 24 25  1  0  0  0  0
 25 26  4  0  0  0  0
 26 27  4  0  0  0  0
 27 28  4  0  0  0  0
 28 29  4  0  0  0  0
 29 30  1  0  0  0  0
 25 31  4  0  0  0  0
 29 31  4  0  0  0  0
 24 32  2  0  0  0  0
 23 33  1  0  0  0  0
 33 34  1  0  0  0  0
 34 35  1  0  0  0  0
 34 36  2  0  0  0  0
 11 37  1  0  0  0  0
 33 37  1  0  0  0  0
 37 38  4  0  0  0  0
 38 39  1  0  0  0  0
 39 40  4  0  0  0  0
 40 41  4  0  0  0  0
 41 42  1  0  0  0  0
 41 43  4  0  0  0  0
 43 44  4  0  0  0  0
 39 45  4  0  0  0  0
 44 45  4  0  0  0  0
 38 46  2  0  0  0  0
  1 47  1  0  0  0  0
  2 48  1  0  0  0  0
  4 49  1  0  0  0  0
  5 50  1  0  0  0  0
  6 51  1  0  0  0  0
  7 52  1  0  0  0  0
  9 53  1  0  0  0  0
 11 54  1  0  0  0  0
 12 55  1  0  0  0  0
 14 56  1  0  0  0  0
 16 57  1  0  0  0  0
 17 58  1  0  0  0  0
 18 59  1  0  0  0  0
 19 60  1  0  0  0  0
 21 61  1  0  0  0  0
 22 62  1  0  0  0  0
 26 63  1  0  0  0  0
 27 64  1  0  0  0  0
 28 65  1  0  0  0  0
 31 66  1  0  0  0  0
 33 67  1  0  0  0  0
 35 68  1  0  0  0  0
 40 69  1  0  0  0  0
 43 70  1  0  0  0  0
 44 71  1  0  0  0  0
 45 72  1  0  0  0  0
M  END
