92

C      2.094621    0.470877    1.725766
C      3.315312    0.364927    2.396849
C      4.203441   -0.671981    2.103072
C      5.433539   -0.792854    2.769681
C      6.311934   -1.839185    2.466250
C      5.974108   -2.766710    1.485935
C      4.750124   -2.663635    0.816787
C      3.852552   -1.625211    1.119772
C      2.617333   -1.514452    0.465363
C      1.732517   -0.459399    0.746224
C      0.408858   -0.394784    0.011507
C     -0.791086   -0.631922    0.977022
C     -1.386421   -2.017454    0.782898
C     -1.217567   -2.988013    1.784632
C     -1.762413   -4.274837    1.652544
C     -1.607640   -5.235212    2.663114
C     -2.159270   -6.508785    2.532610
C     -2.882094   -6.835783    1.388217
C     -3.038258   -5.894261    0.369012
C     -2.483545   -4.609131    0.487188
C     -2.635782   -3.645009   -0.520437
C     -2.095551   -2.364618   -0.377281
N     -1.738684    0.429806    0.661094
C     -2.858264    0.641521    1.447533
C     -3.798664    1.639068    0.978371
C     -4.526734    1.593744   -0.195775
C     -4.628272    0.613295   -1.295681
O     -5.336010    2.680542   -0.291972
C     -5.164887    3.420736    0.845649
C     -5.970447    4.631136    0.956584
C     -5.903897    5.431932    2.105322
C     -6.688266    6.581592    2.224361
C     -7.551771    6.946398    1.193635
C     -7.634310    6.160110    0.046095
C     -6.845871    5.013627   -0.069498
C     -4.242786    2.803562    1.662767
O     -3.045140    0.050797    2.502025
C     -1.129630    1.462476   -0.156918
C     -0.758042    2.754145    0.635164
O     -0.467193    3.822596   -0.155337
O     -0.657526    2.816424    1.851434
N      0.118501    0.893766   -0.632032
C      0.691578    1.437580   -1.762479
C      1.899674    0.840014   -2.278941
C      2.010481    0.078462   -3.423593
C      1.043446   -0.389050   -4.437672
O      3.305905   -0.307600   -3.609015
C      4.046986    0.227299   -2.594432
C      5.472875   -0.076847   -2.578376
C      6.120859   -0.611398   -3.700622
C      7.490753   -0.886352   -3.672514
C      8.233210   -0.628388   -2.523124
C      7.604901   -0.101080   -1.397565
C      6.235053    0.174274   -1.424995
C      3.222834    0.967594   -1.775198
O      0.191171    2.433165   -2.288793
H      1.431924    1.289730    1.991291
H      3.564823    1.109622    3.150970
H      5.715496   -0.080647    3.543163
H      7.255817   -1.924732    2.999561
H      6.660402   -3.574330    1.234919
H      4.506406   -3.396171    0.048220
H      2.357756   -2.248512   -0.294146
H      0.419216   -1.132282   -0.800599
H     -0.506786   -0.496166    2.027487
H     -0.667161   -2.734486    2.691742
H     -1.062466   -4.993917    3.572933
H     -2.027740   -7.242091    3.324591
H     -3.318421   -7.826622    1.282155
H     -3.606259   -6.165097   -0.519154
H     -3.190297   -3.886212   -1.425867
H     -2.245321   -1.642599   -1.176981
H     -5.515949    0.793086   -1.916168
H     -3.749577    0.669265   -1.948950
H     -4.695576   -0.405731   -0.894327
H     -5.246226    5.170727    2.928896
H     -6.625231    7.189349    3.123481
H     -8.155248    7.844945    1.286257
H     -8.307773    6.432830   -0.762483
H     -6.929614    4.408808   -0.970211
H     -3.922844    3.148779    2.636464
H     -1.796449    1.722935   -0.984124
H     -0.423485    3.611219   -1.121391
H      0.050283   -0.521220   -4.001375
H      0.965148    0.332145   -5.259415
H      1.354090   -1.351059   -4.854777
H      5.561135   -0.803715   -4.616587
H      7.975965   -1.303437   -4.552358
H      9.301537   -0.839846   -2.512667
H      8.183958    0.089674   -0.494519
H      5.775560    0.583673   -0.526839
H      3.536365    1.524570   -0.901419
