
  xtb     03162222513D
 xtb: 6.3.3 (4ae9cef)
 92100  0     0  0            999 V2000
    2.0172    0.5064    1.3837 C   0  0  0  0  0  0  0  0  0  0  0  0
    3.2919    0.5066    1.8722 C   0  0  0  0  0  0  0  0  0  0  0  0
    4.2198   -0.4802    1.4785 C   0  0  0  0  0  0  0  0  0  0  0  0
    5.5587   -0.4731    1.9191 C   0  0  0  0  0  0  0  0  0  0  0  0
    6.4347   -1.4356    1.5024 C   0  0  0  0  0  0  0  0  0  0  0  0
    6.0107   -2.4532    0.6343 C   0  0  0  0  0  0  0  0  0  0  0  0
    4.7173   -2.4928    0.1964 C   0  0  0  0  0  0  0  0  0  0  0  0
    3.7914   -1.5089    0.6001 C   0  0  0  0  0  0  0  0  0  0  0  0
    2.4658   -1.4903    0.1241 C   0  0  0  0  0  0  0  0  0  0  0  0
    1.6009   -0.4882    0.4768 C   0  0  0  0  0  0  0  0  0  0  0  0
    0.2271   -0.4095   -0.1324 C   0  0  0  0  0  0  0  0  0  0  0  0
   -0.9119   -0.6716    0.8765 C   0  0  0  0  0  0  0  0  0  0  0  0
   -1.4402   -2.0743    0.7492 C   0  0  0  0  0  0  0  0  0  0  0  0
   -1.2147   -3.0082    1.7229 C   0  0  0  0  0  0  0  0  0  0  0  0
   -1.6886   -4.3286    1.5856 C   0  0  0  0  0  0  0  0  0  0  0  0
   -1.4755   -5.3064    2.5794 C   0  0  0  0  0  0  0  0  0  0  0  0
   -1.9557   -6.5765    2.4235 C   0  0  0  0  0  0  0  0  0  0  0  0
   -2.6686   -6.9287    1.2667 C   0  0  0  0  0  0  0  0  0  0  0  0
   -2.8893   -6.0044    0.2842 C   0  0  0  0  0  0  0  0  0  0  0  0
   -2.4083   -4.6858    0.4158 C   0  0  0  0  0  0  0  0  0  0  0  0
   -2.6202   -3.7053   -0.5762 C   0  0  0  0  0  0  0  0  0  0  0  0
   -2.1441   -2.4371   -0.4164 C   0  0  0  0  0  0  0  0  0  0  0  0
   -1.9169    0.3180    0.5123 N   0  0  0  0  0  0  0  0  0  0  0  0
   -3.1503    0.3240    1.1015 C   0  0  0  0  0  0  0  0  0  0  0  0
   -4.0038    1.4657    0.6854 C   0  0  0  0  0  0  0  0  0  0  0  0
   -4.6993    1.5934   -0.4883 C   0  0  0  0  0  0  0  0  0  0  0  0
   -4.7923    0.6956   -1.6700 C   0  0  0  0  0  0  0  0  0  0  0  0
   -5.3909    2.7489   -0.4892 O   0  0  0  0  0  0  0  0  0  0  0  0
   -5.1531    3.3812    0.6890 C   0  0  0  0  0  0  0  0  0  0  0  0
   -5.7879    4.6585    0.9442 C   0  0  0  0  0  0  0  0  0  0  0  0
   -5.5252    5.3634    2.1200 C   0  0  0  0  0  0  0  0  0  0  0  0
   -6.1415    6.5763    2.3564 C   0  0  0  0  0  0  0  0  0  0  0  0
   -7.0250    7.1065    1.4294 C   0  0  0  0  0  0  0  0  0  0  0  0
   -7.2888    6.4151    0.2584 C   0  0  0  0  0  0  0  0  0  0  0  0
   -6.6769    5.2012    0.0148 C   0  0  0  0  0  0  0  0  0  0  0  0
   -4.3041    2.6199    1.4513 C   0  0  0  0  0  0  0  0  0  0  0  0
   -3.5170   -0.5610    1.8390 O   0  0  0  0  0  0  0  0  0  0  0  0
   -1.3063    1.4527   -0.1158 C   0  0  0  0  0  0  0  0  0  0  0  0
   -1.0338    2.6050    0.9060 C   0  0  0  0  0  0  0  0  0  0  0  0
   -0.5622    3.7092    0.3691 O   0  0  0  0  0  0  0  0  0  0  0  0
   -1.2500    2.4662    2.0753 O   0  0  0  0  0  0  0  0  0  0  0  0
   -0.0622    0.9238   -0.6496 N   0  0  0  0  0  0  0  0  0  0  0  0
    0.6801    1.6132   -1.5367 C   0  0  0  0  0  0  0  0  0  0  0  0
    1.8820    0.9088   -2.0237 C   0  0  0  0  0  0  0  0  0  0  0  0
    1.9642   -0.1666   -2.8689 C   0  0  0  0  0  0  0  0  0  0  0  0
    0.9234   -0.8818   -3.6528 C   0  0  0  0  0  0  0  0  0  0  0  0
    3.2441   -0.5636   -2.9765 O   0  0  0  0  0  0  0  0  0  0  0  0
    4.0067    0.2450   -2.1993 C   0  0  0  0  0  0  0  0  0  0  0  0
    5.4201   -0.0405   -2.0585 C   0  0  0  0  0  0  0  0  0  0  0  0
    5.9793   -1.1434   -2.7052 C   0  0  0  0  0  0  0  0  0  0  0  0
    7.3154   -1.4485   -2.5381 C   0  0  0  0  0  0  0  0  0  0  0  0
    8.1139   -0.6603   -1.7262 C   0  0  0  0  0  0  0  0  0  0  0  0
    7.5679    0.4395   -1.0844 C   0  0  0  0  0  0  0  0  0  0  0  0
    6.2325    0.7504   -1.2459 C   0  0  0  0  0  0  0  0  0  0  0  0
    3.2096    1.1895   -1.6079 C   0  0  0  0  0  0  0  0  0  0  0  0
    0.3764    2.7572   -1.8684 O   0  0  0  0  0  0  0  0  0  0  0  0
    1.3212    1.2772    1.6817 H   0  0  0  0  0  0  0  0  0  0  0  0
    3.6105    1.2762    2.5602 H   0  0  0  0  0  0  0  0  0  0  0  0
    5.8805    0.3117    2.5884 H   0  0  0  0  0  0  0  0  0  0  0  0
    7.4610   -1.4207    1.8375 H   0  0  0  0  0  0  0  0  0  0  0  0
    6.7179   -3.2032    0.3133 H   0  0  0  0  0  0  0  0  0  0  0  0
    4.3860   -3.2724   -0.4742 H   0  0  0  0  0  0  0  0  0  0  0  0
    2.1479   -2.2694   -0.5551 H   0  0  0  0  0  0  0  0  0  0  0  0
    0.1523   -1.1352   -0.9521 H   0  0  0  0  0  0  0  0  0  0  0  0
   -0.5673   -0.4933    1.9038 H   0  0  0  0  0  0  0  0  0  0  0  0
   -0.6770   -2.7386    2.6204 H   0  0  0  0  0  0  0  0  0  0  0  0
   -0.9288   -5.0295    3.4693 H   0  0  0  0  0  0  0  0  0  0  0  0
   -1.7923   -7.3195    3.1904 H   0  0  0  0  0  0  0  0  0  0  0  0
   -3.0425   -7.9366    1.1613 H   0  0  0  0  0  0  0  0  0  0  0  0
   -3.4392   -6.2705   -0.6076 H   0  0  0  0  0  0  0  0  0  0  0  0
   -3.1705   -3.9767   -1.4662 H   0  0  0  0  0  0  0  0  0  0  0  0
   -2.3157   -1.6893   -1.1787 H   0  0  0  0  0  0  0  0  0  0  0  0
   -5.8151    0.6758   -2.0401 H   0  0  0  0  0  0  0  0  0  0  0  0
   -4.1497    1.0454   -2.4803 H   0  0  0  0  0  0  0  0  0  0  0  0
   -4.4934   -0.3100   -1.3863 H   0  0  0  0  0  0  0  0  0  0  0  0
   -4.8357    4.9573    2.8428 H   0  0  0  0  0  0  0  0  0  0  0  0
   -5.9322    7.1138    3.2696 H   0  0  0  0  0  0  0  0  0  0  0  0
   -7.5052    8.0549    1.6191 H   0  0  0  0  0  0  0  0  0  0  0  0
   -7.9760    6.8246   -0.4677 H   0  0  0  0  0  0  0  0  0  0  0  0
   -6.8821    4.6594   -0.8960 H   0  0  0  0  0  0  0  0  0  0  0  0
   -3.9203    2.8327    2.4264 H   0  0  0  0  0  0  0  0  0  0  0  0
   -1.9276    1.8579   -0.9307 H   0  0  0  0  0  0  0  0  0  0  0  0
   -0.2972    3.5852   -0.5882 H   0  0  0  0  0  0  0  0  0  0  0  0
   -0.0304   -0.3722   -3.5533 H   0  0  0  0  0  0  0  0  0  0  0  0
    1.2019   -0.9093   -4.7050 H   0  0  0  0  0  0  0  0  0  0  0  0
    0.8203   -1.9121   -3.3110 H   0  0  0  0  0  0  0  0  0  0  0  0
    5.3535   -1.7572   -3.3346 H   0  0  0  0  0  0  0  0  0  0  0  0
    7.7368   -2.3058   -3.0422 H   0  0  0  0  0  0  0  0  0  0  0  0
    9.1582   -0.9014   -1.5944 H   0  0  0  0  0  0  0  0  0  0  0  0
    8.1880    1.0568   -0.4517 H   0  0  0  0  0  0  0  0  0  0  0  0
    5.8124    1.6046   -0.7399 H   0  0  0  0  0  0  0  0  0  0  0  0
    3.5033    1.9729   -0.9420 H   0  0  0  0  0  0  0  0  0  0  0  0
  1  2  2  0  0  0  0
  2  3  4  0  0  0  0
  3  4  4  0  0  0  0
  4  5  2  0  0  0  0
  5  6  4  0  0  0  0
  6  7  2  0  0  0  0
  3  8  4  0  0  0  0
  7  8  4  0  0  0  0
  8  9  4  0  0  0  0
  1 10  4  0  0  0  0
  9 10  2  0  0  0  0
 10 11  1  0  0  0  0
 11 12  1  0  0  0  0
 12 13  1  0  0  0  0
 13 14  2  0  0  0  0
 14 15  4  0  0  0  0
 15 16  4  0  0  0  0
 16 17  2  0  0  0  0
 17 18  4  0  0  0  0
 18 19  2  0  0  0  0
 15 20  4  0  0  0  0
 19 20  4  0  0  0  0
 20 21  4  0  0  0  0
 13 22  4  0  0  0  0
 21 22  2  0  0  0  0
 12 23  1  0  0  0  0
 23 24  1  0  0  0  0
 24 25  1  0  0  0  0
 25 26  2  0  0  0  0
 26 27  1  0  0  0  0
 26 28  1  0  0  0  0
 28 29  1  0  0  0  0
 29 30  1  0  0  0  0
 30 31  4  0  0  0  0
 31 32  4  0  0  0  0
 32 33  4  0  0  0  0
 33 34  4  0  0  0  0
 30 35  4  0  0  0  0
 34 35  4  0  0  0  0
 25 36  4  0  0  0  0
 29 36  2  0  0  0  0
 24 37  2  0  0  0  0
 23 38  1  0  0  0  0
 38 39  1  0  0  0  0
 39 40  4  0  0  0  0
 39 41  2  0  0  0  0
 11 42  1  0  0  0  0
 38 42  1  0  0  0  0
 42 43  4  0  0  0  0
 43 44  1  0  0  0  0
 44 45  2  0  0  0  0
 45 46  1  0  0  0  0
 45 47  1  0  0  0  0
 47 48  1  0  0  0  0
 48 49  1  0  0  0  0
 49 50  4  0  0  0  0
 50 51  4  0  0  0  0
 51 52  4  0  0  0  0
 52 53  4  0  0  0  0
 49 54  4  0  0  0  0
 53 54  4  0  0  0  0
 44 55  4  0  0  0  0
 48 55  2  0  0  0  0
 43 56  2  0  0  0  0
  1 57  1  0  0  0  0
  2 58  1  0  0  0  0
  4 59  1  0  0  0  0
  5 60  1  0  0  0  0
  6 61  1  0  0  0  0
  7 62  1  0  0  0  0
  9 63  1  0  0  0  0
 11 64  1  0  0  0  0
 12 65  1  0  0  0  0
 14 66  1  0  0  0  0
 16 67  1  0  0  0  0
 17 68  1  0  0  0  0
 18 69  1  0  0  0  0
 19 70  1  0  0  0  0
 21 71  1  0  0  0  0
 22 72  1  0  0  0  0
 27 73  1  0  0  0  0
 27 74  1  0  0  0  0
 27 75  1  0  0  0  0
 31 76  1  0  0  0  0
 32 77  1  0  0  0  0
 33 78  1  0  0  0  0
 34 79  1  0  0  0  0
 35 80  1  0  0  0  0
 36 81  1  0  0  0  0
 38 82  1  0  0  0  0
 40 83  1  0  0  0  0
 46 84  1  0  0  0  0
 46 85  1  0  0  0  0
 46 86  1  0  0  0  0
 50 87  1  0  0  0  0
 51 88  1  0  0  0  0
 52 89  1  0  0  0  0
 53 90  1  0  0  0  0
 54 91  1  0  0  0  0
 55 92  1  0  0  0  0
M  END
