72

C      2.692466   -2.463836    1.237367
C      3.669844   -2.663263    2.213872
C      3.600254   -1.976862    3.423864
C      2.554288   -1.088716    3.659817
C      1.577834   -0.883792    2.682537
C      1.630322   -1.573702    1.458463
C      0.570011   -1.386167    0.386215
C     -0.868437   -1.702750    0.879808
C     -1.261770   -3.122277    0.506264
C     -1.236192   -4.123300    1.490923
C     -1.572515   -5.441221    1.176284
C     -1.929951   -5.778976   -0.127483
C     -1.948054   -4.798662   -1.117473
C     -1.612517   -3.478590   -0.805902
N     -1.676527   -0.658144    0.268715
C     -3.047469   -0.589139    0.429973
C     -3.771368    0.481697   -0.289132
C     -3.770153    0.518899   -1.686289
C     -4.436591    1.551215   -2.342808
C     -5.105329    2.533350   -1.605156
C     -5.127606    2.489356   -0.203943
C     -5.827525    3.566688    0.586003
C     -4.930050    4.774397    0.809002
C     -4.459927    1.445301    0.451229
O     -3.701402   -1.353838    1.131236
C     -0.841733    0.467986   -0.117617
C     -0.827875    1.663822    0.881489
O     -1.555707    1.473031    2.003379
O     -0.181127    2.695542    0.768817
N      0.537594   -0.004848   -0.119146
C      1.219740    0.221344   -1.312478
C      2.566713    0.859485   -1.213848
C      3.318408    1.006863   -2.389974
C      4.566300    1.648989   -2.369002
C      5.360347    1.825899   -3.641066
C      6.594814    0.936850   -3.687325
C      5.060002    2.131368   -1.149670
C      4.321616    1.982750    0.023499
C      3.074802    1.355250   -0.008158
O      0.730577   -0.055414   -2.404634
H      2.769144   -3.019119    0.305709
H      4.485544   -3.358224    2.030680
H      4.362956   -2.145823    4.181117
H      2.499054   -0.556134    4.604651
H      0.773383   -0.180725    2.885134
H      0.820525   -2.029670   -0.469925
H     -0.982989   -1.569483    1.962871
H     -0.967789   -3.879933    2.517785
H     -1.566232   -6.201961    1.952090
H     -2.203763   -6.805110   -0.367053
H     -2.230406   -5.061206   -2.134992
H     -1.631952   -2.730181   -1.595431
H     -3.263388   -0.252954   -2.260614
H     -4.443860    1.591830   -3.428920
H     -5.621613    3.333593   -2.137367
H     -6.738914    3.875385    0.063315
H     -6.155011    3.167976    1.553088
H     -5.463013    5.540622    1.384360
H     -4.028004    4.499486    1.367469
H     -4.617080    5.223468   -0.141430
H     -4.462702    1.383062    1.537785
H     -1.156928    0.856050   -1.091055
H     -1.412772    2.283759    2.532914
H      2.915477    0.635375   -3.330244
H      5.652073    2.881031   -3.733748
H      4.729120    1.610272   -4.511681
H      7.134060    1.091922   -4.627762
H      7.283430    1.162390   -2.865772
H      6.326180   -0.123206   -3.619793
H      6.021065    2.642152   -1.108048
H      4.710193    2.368372    0.962431
H      2.508107    1.280402    0.913939
