
  xtb     03162221483D
 xtb: 6.3.3 (4ae9cef)
 72 76  0     0  0            999 V2000
    2.9311   -1.7851    0.5852 C   0  0  0  0  0  0  0  0  0  0  0  0
    3.9573   -1.9703    1.4946 C   0  0  0  0  0  0  0  0  0  0  0  0
    3.9684   -1.2613    2.6825 C   0  0  0  0  0  0  0  0  0  0  0  0
    2.9414   -0.3762    2.9654 C   0  0  0  0  0  0  0  0  0  0  0  0
    1.9146   -0.1913    2.0591 C   0  0  0  0  0  0  0  0  0  0  0  0
    1.9122   -0.8838    0.8538 C   0  0  0  0  0  0  0  0  0  0  0  0
    0.7844   -0.6975   -0.1241 C   0  0  0  0  0  0  0  0  0  0  0  0
   -0.5300   -1.2919    0.4337 C   0  0  0  0  0  0  0  0  0  0  0  0
   -0.7626   -2.6900   -0.0714 C   0  0  0  0  0  0  0  0  0  0  0  0
   -0.5259   -3.7802    0.7524 C   0  0  0  0  0  0  0  0  0  0  0  0
   -0.7058   -5.0664    0.2753 C   0  0  0  0  0  0  0  0  0  0  0  0
   -1.1246   -5.2728   -1.0276 C   0  0  0  0  0  0  0  0  0  0  0  0
   -1.3575   -4.1878   -1.8557 C   0  0  0  0  0  0  0  0  0  0  0  0
   -1.1706   -2.9026   -1.3819 C   0  0  0  0  0  0  0  0  0  0  0  0
   -1.5515   -0.3643   -0.0289 N   0  0  0  0  0  0  0  0  0  0  0  0
   -2.8684   -0.6062    0.2395 C   0  0  0  0  0  0  0  0  0  0  0  0
   -3.8093    0.4024   -0.3265 C   0  0  0  0  0  0  0  0  0  0  0  0
   -3.9048    0.5719   -1.7021 C   0  0  0  0  0  0  0  0  0  0  0  0
   -4.8042    1.4867   -2.2178 C   0  0  0  0  0  0  0  0  0  0  0  0
   -5.5909    2.2418   -1.3676 C   0  0  0  0  0  0  0  0  0  0  0  0
   -5.5091    2.0787    0.0094 C   0  0  0  0  0  0  0  0  0  0  0  0
   -6.3148    2.9487    0.9291 C   0  0  0  0  0  0  0  0  0  0  0  0
   -5.6257    4.3054    1.0905 C   0  0  0  0  0  0  0  0  0  0  0  0
   -4.6238    1.1406    0.5191 C   0  0  0  0  0  0  0  0  0  0  0  0
   -3.2214   -1.5910    0.8530 O   0  0  0  0  0  0  0  0  0  0  0  0
   -0.9883    0.9087   -0.4048 C   0  0  0  0  0  0  0  0  0  0  0  0
   -1.3873    2.0397    0.5683 C   0  0  0  0  0  0  0  0  0  0  0  0
   -0.9312    1.7943    1.8037 O   0  0  0  0  0  0  0  0  0  0  0  0
   -2.1358    2.9345    0.3011 O   0  0  0  0  0  0  0  0  0  0  0  0
    0.4431    0.6921   -0.3730 N   0  0  0  0  0  0  0  0  0  0  0  0
    1.2301    1.7882   -0.2519 C   0  0  0  0  0  0  0  0  0  0  0  0
    2.6963    1.5732   -0.3527 C   0  0  0  0  0  0  0  0  0  0  0  0
    3.2324    0.8860   -1.4335 C   0  0  0  0  0  0  0  0  0  0  0  0
    4.6049    0.7234   -1.5597 C   0  0  0  0  0  0  0  0  0  0  0  0
    5.1761   -0.0209   -2.7334 C   0  0  0  0  0  0  0  0  0  0  0  0
    5.0367   -1.5324   -2.5480 C   0  0  0  0  0  0  0  0  0  0  0  0
    5.4317    1.2391   -0.5700 C   0  0  0  0  0  0  0  0  0  0  0  0
    4.9041    1.9413    0.4997 C   0  0  0  0  0  0  0  0  0  0  0  0
    3.5391    2.1279    0.6027 C   0  0  0  0  0  0  0  0  0  0  0  0
    0.7209    2.8895   -0.1155 O   0  0  0  0  0  0  0  0  0  0  0  0
    2.9196   -2.3461   -0.3374 H   0  0  0  0  0  0  0  0  0  0  0  0
    4.7488   -2.6710    1.2743 H   0  0  0  0  0  0  0  0  0  0  0  0
    4.7718   -1.4020    3.3899 H   0  0  0  0  0  0  0  0  0  0  0  0
    2.9406    0.1708    3.8964 H   0  0  0  0  0  0  0  0  0  0  0  0
    1.1157    0.5019    2.2791 H   0  0  0  0  0  0  0  0  0  0  0  0
    1.0279   -1.1936   -1.0746 H   0  0  0  0  0  0  0  0  0  0  0  0
   -0.5055   -1.2996    1.5320 H   0  0  0  0  0  0  0  0  0  0  0  0
   -0.2057   -3.6195    1.7714 H   0  0  0  0  0  0  0  0  0  0  0  0
   -0.5248   -5.9097    0.9252 H   0  0  0  0  0  0  0  0  0  0  0  0
   -1.2735   -6.2766   -1.3969 H   0  0  0  0  0  0  0  0  0  0  0  0
   -1.6871   -4.3434   -2.8725 H   0  0  0  0  0  0  0  0  0  0  0  0
   -1.3560   -2.0560   -2.0279 H   0  0  0  0  0  0  0  0  0  0  0  0
   -3.2926   -0.0246   -2.3636 H   0  0  0  0  0  0  0  0  0  0  0  0
   -4.8863    1.6157   -3.2871 H   0  0  0  0  0  0  0  0  0  0  0  0
   -6.2805    2.9662   -1.7767 H   0  0  0  0  0  0  0  0  0  0  0  0
   -7.3178    3.0966    0.5226 H   0  0  0  0  0  0  0  0  0  0  0  0
   -6.4085    2.4689    1.9051 H   0  0  0  0  0  0  0  0  0  0  0  0
   -6.1569    4.9212    1.8129 H   0  0  0  0  0  0  0  0  0  0  0  0
   -4.6009    4.1670    1.4259 H   0  0  0  0  0  0  0  0  0  0  0  0
   -5.5961    4.8300    0.1388 H   0  0  0  0  0  0  0  0  0  0  0  0
   -4.5517    0.9865    1.5864 H   0  0  0  0  0  0  0  0  0  0  0  0
   -1.3145    1.2258   -1.4085 H   0  0  0  0  0  0  0  0  0  0  0  0
   -1.1928    2.5156    2.3973 H   0  0  0  0  0  0  0  0  0  0  0  0
    2.5760    0.4971   -2.1990 H   0  0  0  0  0  0  0  0  0  0  0  0
    6.2318    0.2311   -2.8476 H   0  0  0  0  0  0  0  0  0  0  0  0
    4.6551    0.2779   -3.6457 H   0  0  0  0  0  0  0  0  0  0  0  0
    5.5023   -2.0602   -3.3770 H   0  0  0  0  0  0  0  0  0  0  0  0
    5.5146   -1.8448   -1.6225 H   0  0  0  0  0  0  0  0  0  0  0  0
    3.9876   -1.8150   -2.5056 H   0  0  0  0  0  0  0  0  0  0  0  0
    6.5010    1.1049   -0.6480 H   0  0  0  0  0  0  0  0  0  0  0  0
    5.5618    2.3530    1.2505 H   0  0  0  0  0  0  0  0  0  0  0  0
    3.1152    2.6896    1.4204 H   0  0  0  0  0  0  0  0  0  0  0  0
  1  2  4  0  0  0  0
  2  3  4  0  0  0  0
  3  4  4  0  0  0  0
  4  5  4  0  0  0  0
  1  6  4  0  0  0  0
  5  6  4  0  0  0  0
  6  7  1  0  0  0  0
  7  8  1  0  0  0  0
  8  9  1  0  0  0  0
  9 10  4  0  0  0  0
 10 11  4  0  0  0  0
 11 12  4  0  0  0  0
 12 13  4  0  0  0  0
  9 14  4  0  0  0  0
 13 14  4  0  0  0  0
  8 15  1  0  0  0  0
 15 16  1  0  0  0  0
 16 17  1  0  0  0  0
 17 18  4  0  0  0  0
 18 19  4  0  0  0  0
 19 20  4  0  0  0  0
 20 21  4  0  0  0  0
 21 22  1  0  0  0  0
 22 23  1  0  0  0  0
 17 24  4  0  0  0  0
 21 24  4  0  0  0  0
 16 25  2  0  0  0  0
 15 26  1  0  0  0  0
 26 27  1  0  0  0  0
 27 28  1  0  0  0  0
 27 29  2  0  0  0  0
  7 30  1  0  0  0  0
 26 30  1  0  0  0  0
 30 31  4  0  0  0  0
 31 32  1  0  0  0  0
 32 33  4  0  0  0  0
 33 34  4  0  0  0  0
 34 35  1  0  0  0  0
 35 36  1  0  0  0  0
 34 37  4  0  0  0  0
 37 38  4  0  0  0  0
 32 39  4  0  0  0  0
 38 39  4  0  0  0  0
 31 40  2  0  0  0  0
  1 41  1  0  0  0  0
  2 42  1  0  0  0  0
  3 43  1  0  0  0  0
  4 44  1  0  0  0  0
  5 45  1  0  0  0  0
  7 46  1  0  0  0  0
  8 47  1  0  0  0  0
 10 48  1  0  0  0  0
 11 49  1  0  0  0  0
 12 50  1  0  0  0  0
 13 51  1  0  0  0  0
 14 52  1  0  0  0  0
 18 53  1  0  0  0  0
 19 54  1  0  0  0  0
 20 55  1  0  0  0  0
 22 56  1  0  0  0  0
 22 57  1  0  0  0  0
 23 58  1  0  0  0  0
 23 59  1  0  0  0  0
 23 60  1  0  0  0  0
 24 61  1  0  0  0  0
 26 62  1  0  0  0  0
 28 63  1  0  0  0  0
 33 64  1  0  0  0  0
 35 65  1  0  0  0  0
 35 66  1  0  0  0  0
 36 67  1  0  0  0  0
 36 68  1  0  0  0  0
 36 69  1  0  0  0  0
 37 70  1  0  0  0  0
 38 71  1  0  0  0  0
 39 72  1  0  0  0  0
M  END
