
  xtb     03162221353D
 xtb: 6.3.3 (4ae9cef)
 76 84  0     0  0            999 V2000
   -1.7483    2.9434    4.9036 C   0  0  0  0  0  0  0  0  0  0  0  0
   -3.0585    2.8352    4.5343 C   0  0  0  0  0  0  0  0  0  0  0  0
   -3.3823    2.4586    3.2238 C   0  0  0  0  0  0  0  0  0  0  0  0
   -2.4017    2.1914    2.3081 C   0  0  0  0  0  0  0  0  0  0  0  0
   -1.0366    2.2862    2.6561 C   0  0  0  0  0  0  0  0  0  0  0  0
   -0.7125    2.6764    3.9846 C   0  0  0  0  0  0  0  0  0  0  0  0
    0.6393    2.7916    4.3687 C   0  0  0  0  0  0  0  0  0  0  0  0
    1.6361    2.5341    3.4743 C   0  0  0  0  0  0  0  0  0  0  0  0
    1.3251    2.1393    2.1647 C   0  0  0  0  0  0  0  0  0  0  0  0
    0.0244    2.0092    1.7460 C   0  0  0  0  0  0  0  0  0  0  0  0
   -0.3186    1.5339    0.3521 C   0  0  0  0  0  0  0  0  0  0  0  0
    0.8641    1.3293   -0.6144 C   0  0  0  0  0  0  0  0  0  0  0  0
    0.3479    1.3638   -2.0376 C   0  0  0  0  0  0  0  0  0  0  0  0
    0.0571    0.2059   -2.7099 C   0  0  0  0  0  0  0  0  0  0  0  0
   -0.4673    0.2228   -4.0098 C   0  0  0  0  0  0  0  0  0  0  0  0
   -0.6965    1.4132   -4.6351 C   0  0  0  0  0  0  0  0  0  0  0  0
   -0.4206    2.6316   -3.9805 C   0  0  0  0  0  0  0  0  0  0  0  0
    0.0977    2.6182   -2.6570 C   0  0  0  0  0  0  0  0  0  0  0  0
    0.3280    3.8573   -2.0193 C   0  0  0  0  0  0  0  0  0  0  0  0
    0.0768    5.0381   -2.6617 C   0  0  0  0  0  0  0  0  0  0  0  0
   -0.4183    5.0475   -3.9732 C   0  0  0  0  0  0  0  0  0  0  0  0
   -0.6630    3.8676   -4.6155 C   0  0  0  0  0  0  0  0  0  0  0  0
    1.3380    0.0026   -0.2290 N   0  0  0  0  0  0  0  0  0  0  0  0
    2.5473   -0.4650   -0.6220 C   0  0  0  0  0  0  0  0  0  0  0  0
    2.8051   -1.9116   -0.3040 C   0  0  0  0  0  0  0  0  0  0  0  0
    2.1769   -2.9179   -1.0327 C   0  0  0  0  0  0  0  0  0  0  0  0
    2.4610   -4.2523   -0.7861 C   0  0  0  0  0  0  0  0  0  0  0  0
    3.3655   -4.5984    0.2003 C   0  0  0  0  0  0  0  0  0  0  0  0
    3.9896   -3.5889    0.9218 C   0  0  0  0  0  0  0  0  0  0  0  0
    4.9157   -3.9379    1.9743 N   0  0  0  0  0  0  0  0  0  0  0  0
    5.2221   -3.0641    2.7563 O   0  0  0  0  0  0  0  0  0  0  0  0
    5.3100   -5.0813    2.0192 O   0  0  0  0  0  0  0  0  0  0  0  0
    3.7346   -2.2491    0.6665 C   0  0  0  0  0  0  0  0  0  0  0  0
    3.3550    0.2262   -1.1995 O   0  0  0  0  0  0  0  0  0  0  0  0
    0.3268   -0.6828    0.5479 C   0  0  0  0  0  0  0  0  0  0  0  0
    0.6695   -0.8266    2.0491 C   0  0  0  0  0  0  0  0  0  0  0  0
    1.9649   -0.7236    2.2993 O   0  0  0  0  0  0  0  0  0  0  0  0
   -0.1660   -1.0675    2.8740 O   0  0  0  0  0  0  0  0  0  0  0  0
   -0.8314    0.1613    0.4148 N   0  0  0  0  0  0  0  0  0  0  0  0
   -1.9866   -0.1807   -0.2218 C   0  0  0  0  0  0  0  0  0  0  0  0
   -2.2276   -1.6520   -0.3493 C   0  0  0  0  0  0  0  0  0  0  0  0
   -2.4370   -2.1787   -1.6153 C   0  0  0  0  0  0  0  0  0  0  0  0
   -2.6777   -3.5391   -1.7464 C   0  0  0  0  0  0  0  0  0  0  0  0
   -2.8371   -4.0998   -3.0689 N   0  0  0  0  0  0  0  0  0  0  0  0
   -3.2379   -5.2393   -3.1502 O   0  0  0  0  0  0  0  0  0  0  0  0
   -2.5413   -3.3966   -4.0102 O   0  0  0  0  0  0  0  0  0  0  0  0
   -2.7525   -4.3711   -0.6361 C   0  0  0  0  0  0  0  0  0  0  0  0
   -2.5640   -3.8301    0.6232 C   0  0  0  0  0  0  0  0  0  0  0  0
   -2.2920   -2.4784    0.7708 C   0  0  0  0  0  0  0  0  0  0  0  0
   -2.7804    0.6428   -0.6176 O   0  0  0  0  0  0  0  0  0  0  0  0
   -1.4807    3.2370    5.9086 H   0  0  0  0  0  0  0  0  0  0  0  0
   -3.8474    3.0405    5.2426 H   0  0  0  0  0  0  0  0  0  0  0  0
   -4.4197    2.3801    2.9347 H   0  0  0  0  0  0  0  0  0  0  0  0
   -2.6917    1.9080    1.3103 H   0  0  0  0  0  0  0  0  0  0  0  0
    0.8686    3.0871    5.3822 H   0  0  0  0  0  0  0  0  0  0  0  0
    2.6732    2.6242    3.7612 H   0  0  0  0  0  0  0  0  0  0  0  0
    2.1486    1.9289    1.5003 H   0  0  0  0  0  0  0  0  0  0  0  0
   -1.0866    2.1676   -0.0982 H   0  0  0  0  0  0  0  0  0  0  0  0
    1.6760    2.0484   -0.5007 H   0  0  0  0  0  0  0  0  0  0  0  0
    0.2384   -0.7528   -2.2448 H   0  0  0  0  0  0  0  0  0  0  0  0
   -0.6879   -0.7120   -4.5037 H   0  0  0  0  0  0  0  0  0  0  0  0
   -1.0985    1.4405   -5.6370 H   0  0  0  0  0  0  0  0  0  0  0  0
    0.7024    3.8823   -1.0075 H   0  0  0  0  0  0  0  0  0  0  0  0
    0.2594    5.9752   -2.1567 H   0  0  0  0  0  0  0  0  0  0  0  0
   -0.6060    5.9901   -4.4655 H   0  0  0  0  0  0  0  0  0  0  0  0
   -1.0504    3.8600   -5.6241 H   0  0  0  0  0  0  0  0  0  0  0  0
    1.4802   -2.6592   -1.8172 H   0  0  0  0  0  0  0  0  0  0  0  0
    1.9748   -5.0220   -1.3651 H   0  0  0  0  0  0  0  0  0  0  0  0
    3.5977   -5.6290    0.4209 H   0  0  0  0  0  0  0  0  0  0  0  0
    4.2578   -1.4866    1.2219 H   0  0  0  0  0  0  0  0  0  0  0  0
    0.1305   -1.6996    0.1784 H   0  0  0  0  0  0  0  0  0  0  0  0
    2.1571   -0.8159    3.2480 H   0  0  0  0  0  0  0  0  0  0  0  0
   -2.4120   -1.5448   -2.4892 H   0  0  0  0  0  0  0  0  0  0  0  0
   -2.9530   -5.4223   -0.7769 H   0  0  0  0  0  0  0  0  0  0  0  0
   -2.6231   -4.4631    1.4945 H   0  0  0  0  0  0  0  0  0  0  0  0
   -2.1306   -2.0570    1.7520 H   0  0  0  0  0  0  0  0  0  0  0  0
  1  2  2  0  0  0  0
  2  3  4  0  0  0  0
  3  4  2  0  0  0  0
  4  5  4  0  0  0  0
  1  6  4  0  0  0  0
  5  6  4  0  0  0  0
  6  7  4  0  0  0  0
  7  8  2  0  0  0  0
  8  9  4  0  0  0  0
  5 10  4  0  0  0  0
  9 10  2  0  0  0  0
 10 11  1  0  0  0  0
 11 12  1  0  0  0  0
 12 13  1  0  0  0  0
 13 14  2  0  0  0  0
 14 15  4  0  0  0  0
 15 16  2  0  0  0  0
 16 17  4  0  0  0  0
 13 18  4  0  0  0  0
 17 18  4  0  0  0  0
 18 19  4  0  0  0  0
 19 20  2  0  0  0  0
 20 21  4  0  0  0  0
 17 22  4  0  0  0  0
 21 22  2  0  0  0  0
 12 23  1  0  0  0  0
 23 24  4  0  0  0  0
 24 25  1  0  0  0  0
 25 26  4  0  0  0  0
 26 27  4  0  0  0  0
 27 28  4  0  0  0  0
 28 29  4  0  0  0  0
 29 30  1  0  0  0  0
 30 31  4  0  0  0  0
 30 32  4  0  0  0  0
 31 32  1  0  0  0  0
 25 33  4  0  0  0  0
 29 33  4  0  0  0  0
 24 34  2  0  0  0  0
 23 35  1  0  0  0  0
 35 36  1  0  0  0  0
 36 37  1  0  0  0  0
 36 38  2  0  0  0  0
 11 39  1  0  0  0  0
 35 39  1  0  0  0  0
 39 40  1  0  0  0  0
 40 41  1  0  0  0  0
 41 42  4  0  0  0  0
 42 43  4  0  0  0  0
 43 44  1  0  0  0  0
 44 45  4  0  0  0  0
 44 46  4  0  0  0  0
 45 46  1  0  0  0  0
 43 47  4  0  0  0  0
 47 48  4  0  0  0  0
 41 49  4  0  0  0  0
 48 49  4  0  0  0  0
 40 50  2  0  0  0  0
  1 51  1  0  0  0  0
  2 52  1  0  0  0  0
  3 53  1  0  0  0  0
  4 54  1  0  0  0  0
  7 55  1  0  0  0  0
  8 56  1  0  0  0  0
  9 57  1  0  0  0  0
 11 58  1  0  0  0  0
 12 59  1  0  0  0  0
 14 60  1  0  0  0  0
 15 61  1  0  0  0  0
 16 62  1  0  0  0  0
 19 63  1  0  0  0  0
 20 64  1  0  0  0  0
 21 65  1  0  0  0  0
 22 66  1  0  0  0  0
 26 67  1  0  0  0  0
 27 68  1  0  0  0  0
 28 69  1  0  0  0  0
 33 70  1  0  0  0  0
 35 71  1  0  0  0  0
 37 72  1  0  0  0  0
 42 73  1  0  0  0  0
 47 74  1  0  0  0  0
 48 75  1  0  0  0  0
 49 76  1  0  0  0  0
M  END
